<additional>
	<vTypeDistribution id="DEFAULT_VEHTYPE">
		<vType id="passenger" guiShape="passenger" vClass="passenger" probability="4" length="5.0" width="2.0" minGap="2.5" accel="1.90" decel="5.91" maxSpeed="50.0" lcStrategic="67.15" lcSpeedGain="19.15" lcCooperative="2.08" sigma="0.56" speedDev="0.15" speedFactor="0.96" lcImpatience="0.13" impatience="0.12" lcMaxSpeedLatStanding="0.00" lcSigma="0.11" lcKeepRight="0.83"/>
		<vType id="truck" guiShape="truck" vClass="truck" probability="0.8" length="7.5" width="2.6" minGap="2.5" accel="1.05" decel="4.29" maxSpeed="36.11111111111111" lcStrategic="62.32" lcSpeedGain="17.51" lcCooperative="1.27" sigma="0.61" speedDev="0.14" speedFactor="1.01" lcImpatience="0.27" impatience="0.38" lcMaxSpeedLatStanding="0.00" lcSigma="0.13" lcKeepRight="0.89"/>
		<vType id="bus" guiShape="bus" vClass="bus" probability="0.3" length="12.4" width="2.7" minGap="2.5" accel="1.37" decel="4.22" maxSpeed="23.61111111111111" lcStrategic="63.47" lcSpeedGain="3.27" lcCooperative="2.31" sigma="0.61" speedDev="0.17" speedFactor="1.04" lcImpatience="0.25" impatience="0.34" lcMaxSpeedLatStanding="0.00" lcSigma="0.12" lcKeepRight="0.83"/>
		<vType id="bicycle" guiShape="bicycle" vClass="bicycle" probability="0.2" length="2.0" width="0.68" minGap="1.0" accel="1.24" decel="2.93" maxSpeed="6.944444444444445" lcStrategic="57.52" lcSpeedGain="7.89" lcCooperative="2.85" sigma="0.62" speedDev="0.19" speedFactor="0.91" lcImpatience="0.16" impatience="0.14" lcMaxSpeedLatStanding="0.00" lcSigma="0.19" lcKeepRight="0.89"/>
	</vTypeDistribution>
</additional>
