<!-- generated on 2023-07-05 11:09:32 by Eclipse SUMO netconvert Version 1.17.0
<configuration xmlns:xsi="http://www.w3.org/2001/XMLSchema-instance" xsi:noNamespaceSchemaLocation="http://sumo.dlr.de/xsd/netconvertConfiguration.xsd">

    <input>
        <node-files value="/home/tianzheng/Documents/2Github/OpenSCENARIO2SUMO/Commonroad2SUMO/output/CircleJunction/43afdf29-3720-44cc-91be-9d7aa2455032.nod.xml"/>
        <edge-files value="/home/tianzheng/Documents/2Github/OpenSCENARIO2SUMO/Commonroad2SUMO/output/CircleJunction/43afdf29-3720-44cc-91be-9d7aa2455032.edg.xml"/>
        <connection-files value="/home/tianzheng/Documents/2Github/OpenSCENARIO2SUMO/Commonroad2SUMO/output/CircleJunction/43afdf29-3720-44cc-91be-9d7aa2455032.con.xml"/>
        <tllogic-files value="/home/tianzheng/Documents/2Github/OpenSCENARIO2SUMO/Commonroad2SUMO/output/CircleJunction/43afdf29-3720-44cc-91be-9d7aa2455032.tll.xml"/>
        <type-files value="/home/tianzheng/Documents/2Github/OpenSCENARIO2SUMO/Commonroad2SUMO/output/CircleJunction/43afdf29-3720-44cc-91be-9d7aa2455032.typ.xml"/>
    </input>

    <output>
        <output-file value="/home/tianzheng/Documents/2Github/OpenSCENARIO2SUMO/Commonroad2SUMO/output/CircleJunction/43afdf29-3720-44cc-91be-9d7aa2455032.net.xml"/>
    </output>

    <processing>
        <geometry.remove.keep-edges.explicit value="true"/>
        <geometry.remove.min-length value="0.0"/>
        <geometry.avoid-overlap value="true"/>
        <offset.disable-normalization value="true"/>
    </processing>

    <tls_building>
        <tls.guess-signals value="true"/>
        <tls.green.time value="50"/>
        <tls.yellow.time value="10"/>
        <tls.red.time value="50"/>
        <tls.allred.time value="50"/>
        <tls.left-green.time value="50"/>
        <tls.crossing-min.time value="50"/>
        <tls.crossing-clearance.time value="50"/>
        <tls.group-signals value="true"/>
    </tls_building>

    <junctions>
        <no-turnarounds value="true"/>
        <junctions.internal-link-detail value="20"/>
    </junctions>

    <random_number>
        <seed value="1234"/>
    </random_number>

</configuration>
--><net xmlns:xsi="http://www.w3.org/2001/XMLSchema-instance" version="1.16" junctionCornerDetail="5" junctionLinkDetail="20" limitTurnSpeed="5.50" xsi:noNamespaceSchemaLocation="http://sumo.dlr.de/xsd/net_file.xsd">

    <location netOffset="0.00,0.00" convBoundary="-233.87,-109.78,183.63,23.71" origBoundary="-233.87,-109.78,183.63,80.50" projParameter="!"/>

    <type id="highway.bridleway" priority="1" speed="2.78" allow="pedestrian" oneway="1"/>
    <type id="highway.bus_guideway" priority="1" speed="27.78" allow="bus" oneway="1"/>
    <type id="highway.cycleway" priority="1" speed="8.33" allow="bicycle"/>
    <type id="highway.footway" priority="1" speed="2.78" allow="pedestrian" oneway="1"/>
    <type id="highway.ford" priority="1" speed="2.78" allow="army"/>
    <type id="highway.living_street" priority="2" speed="2.78" disallow="tram rail_urban rail rail_electric ship"/>
    <type id="highway.motorway" priority="14" speed="39.44" disallow="pedestrian moped bicycle tram rail_urban rail rail_electric ship" oneway="1"/>
    <type id="highway.motorway_link" priority="9" speed="22.22" disallow="pedestrian moped bicycle tram rail_urban rail rail_electric ship" oneway="1"/>
    <type id="highway.path" priority="1" speed="2.78" allow="pedestrian bicycle"/>
    <type id="highway.pedestrian" priority="1" speed="2.78" allow="pedestrian" oneway="1"/>
    <type id="highway.primary" priority="12" speed="27.78" disallow="pedestrian tram rail_urban rail rail_electric ship"/>
    <type id="highway.primary_link" priority="7" speed="22.22" disallow="pedestrian tram rail_urban rail rail_electric ship"/>
    <type id="highway.raceway" priority="15" speed="83.33" allow="vip"/>
    <type id="highway.residential" priority="3" speed="13.89" disallow="pedestrian tram rail_urban rail rail_electric ship"/>
    <type id="highway.residential_speed_17.88" priority="3" speed="17.88" disallow="pedestrian tram rail_urban rail rail_electric ship"/>
    <type id="highway.secondary" priority="11" speed="27.78" disallow="pedestrian tram rail_urban rail rail_electric ship"/>
    <type id="highway.secondary_link" priority="6" speed="22.22" disallow="pedestrian tram rail_urban rail rail_electric ship"/>
    <type id="highway.service" priority="1" speed="5.56" allow="pedestrian delivery bicycle"/>
    <type id="highway.stairs" priority="1" speed="1.39" allow="pedestrian" oneway="1"/>
    <type id="highway.step" priority="1" speed="1.39" allow="pedestrian" oneway="1"/>
    <type id="highway.steps" priority="1" speed="1.39" allow="pedestrian" oneway="1"/>
    <type id="highway.tertiary" priority="10" speed="22.22" disallow="pedestrian tram rail_urban rail rail_electric ship"/>
    <type id="highway.tertiary_link" priority="5" speed="22.22" disallow="pedestrian tram rail_urban rail rail_electric ship"/>
    <type id="highway.track" priority="1" speed="5.56" allow="pedestrian motorcycle moped bicycle"/>
    <type id="highway.trunk" priority="13" speed="27.78" disallow="pedestrian bicycle tram rail_urban rail rail_electric ship"/>
    <type id="highway.trunk_link" priority="8" speed="22.22" disallow="pedestrian bicycle tram rail_urban rail rail_electric ship"/>
    <type id="highway.unclassified" priority="4" speed="13.89" disallow="tram rail_urban rail rail_electric ship"/>
    <type id="highway.unsurfaced" priority="1" speed="8.33" disallow="tram rail_urban rail rail_electric ship"/>
    <type id="railway.highspeed" priority="21" speed="69.44" allow="rail" oneway="1"/>
    <type id="railway.light_rail" priority="19" speed="27.78" allow="rail_urban" oneway="1"/>
    <type id="railway.preserved" priority="16" speed="27.78" allow="rail" oneway="1"/>
    <type id="railway.rail" priority="20" speed="44.44" allow="rail" oneway="1"/>
    <type id="railway.subway" priority="18" speed="27.78" allow="rail_urban" oneway="1"/>
    <type id="railway.tram" priority="17" speed="13.89" allow="tram" oneway="1"/>

    <edge id=":1_0" function="internal">
        <lane id=":1_0_0" index="0" disallow="pedestrian tram rail_urban rail rail_electric ship" speed="17.88" length="2.99" width="3.50" shape="1.89,-53.53 -1.04,-54.15"/>
    </edge>
    <edge id=":1_1" function="internal">
        <lane id=":1_1_0" index="0" disallow="pedestrian tram rail_urban rail rail_electric ship" speed="17.88" length="2.99" width="3.50" shape="1.89,-53.53 -1.04,-54.15"/>
    </edge>
    <edge id=":12_0" function="internal">
        <lane id=":12_0_0" index="0" disallow="pedestrian tram rail_urban rail rail_electric ship" speed="17.88" length="3.00" width="3.50" shape="62.30,-2.72 65.30,-2.66"/>
    </edge>
    <edge id=":12_1" function="internal">
        <lane id=":12_1_0" index="0" disallow="pedestrian tram rail_urban rail rail_electric ship" speed="17.88" length="3.00" width="3.50" shape="62.30,-2.72 65.30,-2.66"/>
    </edge>
    <edge id=":13_0" function="internal">
        <lane id=":13_0_0" index="0" disallow="pedestrian tram rail_urban rail rail_electric ship" speed="7.21" length="8.50" width="3.50" shape="-17.06,-58.68 -16.31,-58.72 -15.60,-58.78 -14.92,-58.84 -14.29,-58.91 -13.69,-58.99 -13.12,-59.08 -12.60,-59.18 -12.11,-59.28 -11.66,-59.40 -11.25,-59.52 -10.87,-59.65 -10.53,-59.79 -10.23,-59.94 -9.97,-60.10 -9.75,-60.27 -9.56,-60.44 -9.41,-60.62 -9.30,-60.82 -9.23,-61.02"/>
    </edge>
    <edge id=":13_1" function="internal">
        <lane id=":13_1_0" index="0" disallow="pedestrian tram rail_urban rail rail_electric ship" speed="17.88" length="10.12" width="3.50" shape="-17.06,-58.68 -16.31,-58.72 -15.64,-58.75 -15.02,-58.79 -14.47,-58.81 -13.95,-58.84 -13.48,-58.86 -13.04,-58.87 -12.62,-58.88 -12.21,-58.88 -11.80,-58.87 -11.39,-58.86 -10.97,-58.84 -10.53,-58.82 -10.06,-58.78 -9.55,-58.74 -8.99,-58.69 -8.38,-58.64 -7.70,-58.57 -6.96,-58.50"/>
    </edge>
    <edge id=":14_0" function="internal">
        <lane id=":14_0_0" index="0" disallow="pedestrian tram rail_urban rail rail_electric ship" speed="17.88" length="3.00" width="3.50" shape="-4.73,-67.89 -4.63,-64.89"/>
    </edge>
    <edge id=":14_1" function="internal">
        <lane id=":14_1_0" index="0" disallow="pedestrian tram rail_urban rail rail_electric ship" speed="17.88" length="3.00" width="3.50" shape="-4.73,-67.89 -4.63,-64.89"/>
    </edge>
    <edge id=":15_0" function="internal">
        <lane id=":15_0_0" index="0" disallow="pedestrian tram rail_urban rail rail_electric ship" speed="17.88" length="13.59" width="3.50" shape="-3.42,-54.55 -4.19,-54.66 -4.94,-54.77 -5.67,-54.86 -6.39,-54.95 -7.09,-55.02 -7.79,-55.09 -8.47,-55.14 -9.16,-55.19 -9.83,-55.23 -10.51,-55.26 -11.19,-55.28 -11.87,-55.30 -12.56,-55.30 -13.26,-55.30 -13.97,-55.29 -14.69,-55.27 -15.43,-55.25 -16.19,-55.22 -16.97,-55.18"/>
    </edge>
    <edge id=":15_1" function="internal">
        <lane id=":15_1_0" index="0" disallow="pedestrian tram rail_urban rail rail_electric ship" speed="9.46" length="13.57" width="3.50" shape="-5.06,-60.17 -5.27,-59.71 -5.52,-59.28 -5.82,-58.86 -6.17,-58.47 -6.56,-58.10 -7.00,-57.75 -7.49,-57.42 -8.02,-57.12 -8.60,-56.83 -9.23,-56.57 -9.90,-56.33 -10.62,-56.11 -11.39,-55.91 -12.20,-55.74 -13.06,-55.58 -13.97,-55.45 -14.92,-55.34 -15.92,-55.25 -16.97,-55.18"/>
    </edge>
    <edge id=":16_0" function="internal">
        <lane id=":16_0_0" index="0" disallow="pedestrian tram rail_urban rail rail_electric ship" speed="11.13" length="6.04" width="3.50" shape="-86.70,20.19 -87.08,19.95 -87.41,19.72 -87.72,19.51 -87.99,19.30 -88.24,19.11 -88.48,18.93 -88.70,18.77 -88.91,18.61 -89.11,18.47 -89.32,18.34 -89.54,18.23 -89.76,18.12 -90.00,18.03 -90.27,17.95 -90.55,17.89 -90.87,17.83 -91.23,17.80 -91.62,17.77 -92.06,17.76"/>
    </edge>
    <edge id=":16_1" function="internal">
        <lane id=":16_1_0" index="0" disallow="pedestrian tram rail_urban rail rail_electric ship" speed="17.88" length="9.17" width="3.50" shape="-83.05,16.84 -83.69,17.08 -84.27,17.28 -84.79,17.44 -85.27,17.58 -85.72,17.69 -86.13,17.78 -86.52,17.84 -86.90,17.89 -87.27,17.91 -87.63,17.92 -88.00,17.92 -88.39,17.91 -88.79,17.89 -89.23,17.87 -89.69,17.84 -90.21,17.82 -90.77,17.79 -91.38,17.77 -92.06,17.76"/>
    </edge>
    <edge id=":17_0" function="internal">
        <lane id=":17_0_0" index="0" disallow="pedestrian tram rail_urban rail rail_electric ship" speed="17.88" length="18.06" width="3.50" shape="52.88,12.45 52.89,11.64 52.89,10.78 52.87,9.88 52.83,8.95 52.78,7.98 52.72,7.00 52.64,5.99 52.55,4.98 52.44,3.95 52.33,2.93 52.20,1.91 52.06,0.90 51.92,-0.10 51.76,-1.08 51.59,-2.03 51.42,-2.94 51.24,-3.82 51.05,-4.66 50.86,-5.45"/>
    </edge>
    <edge id=":17_1" function="internal">
        <lane id=":17_1_0" index="0" disallow="pedestrian tram rail_urban rail rail_electric ship" speed="9.47" length="17.52" width="3.50" shape="52.88,12.45 52.94,10.99 53.02,9.60 53.14,8.28 53.28,7.04 53.46,5.87 53.66,4.78 53.90,3.76 54.16,2.82 54.46,1.95 54.78,1.15 55.14,0.43 55.52,-0.22 55.94,-0.79 56.38,-1.29 56.86,-1.71 57.36,-2.06 57.90,-2.34 58.46,-2.54 59.06,-2.67"/>
    </edge>
    <edge id=":2_0" function="internal">
        <lane id=":2_0_0" index="0" disallow="pedestrian tram rail_urban rail rail_electric ship" speed="15.07" length="10.29" width="3.50" shape="-6.65,-58.02 -7.03,-58.66 -7.36,-59.25 -7.63,-59.80 -7.84,-60.30 -8.02,-60.78 -8.15,-61.23 -8.25,-61.66 -8.31,-62.08 -8.35,-62.49 -8.36,-62.91 -8.36,-63.34 -8.34,-63.78 -8.32,-64.25 -8.29,-64.75 -8.26,-65.28 -8.24,-65.86 -8.22,-66.49 -8.22,-67.18 -8.24,-67.94"/>
    </edge>
    <edge id=":2_1" function="internal">
        <lane id=":2_1_0" index="0" disallow="pedestrian tram rail_urban rail rail_electric ship" speed="17.88" length="6.84" width="3.50" shape="-9.17,-61.21 -9.04,-61.70 -8.92,-62.14 -8.81,-62.55 -8.70,-62.91 -8.61,-63.25 -8.53,-63.56 -8.46,-63.85 -8.40,-64.12 -8.35,-64.39 -8.31,-64.66 -8.27,-64.93 -8.24,-65.22 -8.22,-65.51 -8.21,-65.83 -8.20,-66.17 -8.20,-66.55 -8.21,-66.97 -8.22,-67.43 -8.24,-67.94"/>
    </edge>
    <edge id=":21_0" function="internal">
        <lane id=":21_0_0" index="0" disallow="pedestrian tram rail_urban rail rail_electric ship" speed="7.00" length="7.83" width="3.50" shape="-91.75,14.26 -91.05,14.26 -90.38,14.26 -89.75,14.25 -89.15,14.22 -88.59,14.19 -88.06,14.15 -87.57,14.09 -87.11,14.03 -86.69,13.96 -86.30,13.88 -85.94,13.79 -85.62,13.69 -85.34,13.58 -85.09,13.46 -84.87,13.34 -84.69,13.20 -84.54,13.05 -84.42,12.90 -84.35,12.73"/>
    </edge>
    <edge id=":21_1" function="internal">
        <lane id=":21_1_0" index="0" disallow="pedestrian tram rail_urban rail rail_electric ship" speed="13.08" length="8.15" width="3.50" shape="-91.75,14.26 -91.15,14.25 -90.61,14.22 -90.11,14.16 -89.65,14.08 -89.22,14.00 -88.83,13.90 -88.46,13.80 -88.10,13.71 -87.76,13.63 -87.43,13.56 -87.10,13.51 -86.76,13.48 -86.42,13.48 -86.06,13.52 -85.68,13.60 -85.28,13.72 -84.84,13.89 -84.38,14.12 -83.87,14.41"/>
    </edge>
    <edge id=":22_0" function="internal">
        <lane id=":22_0_0" index="0" disallow="pedestrian tram rail_urban rail rail_electric ship" speed="17.88" length="8.72" width="3.50" shape="-79.18,5.72 -79.23,6.37 -79.29,6.95 -79.34,7.48 -79.40,7.96 -79.45,8.40 -79.50,8.81 -79.55,9.19 -79.59,9.55 -79.63,9.89 -79.66,10.24 -79.68,10.59 -79.69,10.95 -79.70,11.32 -79.69,11.73 -79.67,12.17 -79.64,12.64 -79.59,13.17 -79.53,13.75 -79.46,14.40"/>
    </edge>
    <edge id=":22_1" function="internal">
        <lane id=":22_1_0" index="0" disallow="pedestrian tram rail_urban rail rail_electric ship" speed="9.00" length="12.07" width="3.50" shape="-79.18,5.72 -79.27,6.74 -79.36,7.71 -79.47,8.64 -79.60,9.51 -79.73,10.34 -79.88,11.12 -80.03,11.85 -80.20,12.53 -80.38,13.16 -80.58,13.74 -80.78,14.27 -81.00,14.76 -81.23,15.19 -81.47,15.58 -81.73,15.91 -81.99,16.20 -82.27,16.44 -82.56,16.63 -82.86,16.77"/>
    </edge>
    <edge id=":24_0" function="internal">
        <lane id=":24_0_0" index="0" disallow="pedestrian tram rail_urban rail rail_electric ship" speed="17.88" length="12.56" width="3.50" shape="-79.43,14.60 -79.34,15.36 -79.25,16.09 -79.16,16.79 -79.08,17.46 -79.00,18.10 -78.92,18.73 -78.85,19.34 -78.76,19.94 -78.68,20.54 -78.59,21.13 -78.50,21.72 -78.40,22.31 -78.29,22.92 -78.17,23.54 -78.04,24.18 -77.90,24.83 -77.74,25.52 -77.57,26.23 -77.39,26.98"/>
    </edge>
    <edge id=":24_1" function="internal">
        <lane id=":24_1_0" index="0" disallow="pedestrian tram rail_urban rail rail_electric ship" speed="12.57" length="14.37" width="3.50" shape="-83.69,14.52 -83.05,14.95 -82.45,15.41 -81.91,15.92 -81.42,16.45 -80.97,17.02 -80.56,17.62 -80.19,18.24 -79.85,18.89 -79.54,19.56 -79.26,20.25 -79.00,20.96 -78.77,21.68 -78.55,22.42 -78.34,23.16 -78.14,23.92 -77.95,24.68 -77.77,25.45 -77.58,26.21 -77.39,26.98"/>
    </edge>
    <edge id=":3_0" function="internal">
        <lane id=":3_0_0" index="0" disallow="pedestrian tram rail_urban rail rail_electric ship" speed="7.83" length="10.67" width="3.50" shape="-4.58,-63.65 -4.54,-63.13 -4.47,-62.63 -4.35,-62.14 -4.20,-61.68 -4.01,-61.23 -3.78,-60.81 -3.52,-60.40 -3.21,-60.01 -2.87,-59.64 -2.49,-59.29 -2.07,-58.95 -1.62,-58.64 -1.13,-58.34 -0.59,-58.06 -0.03,-57.80 0.58,-57.56 1.23,-57.34 1.91,-57.14 2.63,-56.95"/>
    </edge>
    <edge id=":3_1" function="internal">
        <lane id=":3_1_0" index="0" disallow="pedestrian tram rail_urban rail rail_electric ship" speed="17.88" length="9.53" width="3.50" shape="-6.76,-58.48 -6.05,-58.41 -5.41,-58.35 -4.83,-58.29 -4.31,-58.24 -3.83,-58.19 -3.39,-58.14 -2.98,-58.09 -2.59,-58.03 -2.21,-57.98 -1.84,-57.92 -1.46,-57.86 -1.08,-57.78 -0.67,-57.70 -0.24,-57.61 0.23,-57.51 0.74,-57.39 1.31,-57.26 1.93,-57.11 2.63,-56.95"/>
    </edge>
    <edge id=":4_0" function="internal">
        <lane id=":4_0_0" index="0" disallow="pedestrian tram rail_urban rail rail_electric ship" speed="8.00" length="10.66" width="3.50" shape="53.37,-9.48 53.59,-8.80 53.83,-8.16 54.09,-7.55 54.37,-6.98 54.66,-6.44 54.97,-5.94 55.30,-5.48 55.65,-5.05 56.01,-4.66 56.39,-4.31 56.79,-3.99 57.21,-3.71 57.64,-3.46 58.09,-3.25 58.56,-3.08 59.05,-2.94 59.55,-2.84 60.07,-2.78 60.61,-2.75"/>
    </edge>
    <edge id=":4_1" function="internal">
        <lane id=":4_1_0" index="0" disallow="pedestrian tram rail_urban rail rail_electric ship" speed="17.88" length="8.52" width="3.50" shape="53.37,-9.48 53.55,-8.87 53.73,-8.32 53.88,-7.83 54.02,-7.38 54.15,-6.96 54.26,-6.58 54.37,-6.23 54.46,-5.89 54.55,-5.56 54.63,-5.23 54.71,-4.90 54.78,-4.56 54.86,-4.20 54.93,-3.81 55.01,-3.38 55.09,-2.92 55.17,-2.41 55.26,-1.84 55.36,-1.21"/>
    </edge>
    <edge id=":5_0" function="internal">
        <lane id=":5_0_0" index="0" disallow="pedestrian tram rail_urban rail rail_electric ship" speed="17.88" length="10.42" width="3.50" shape="57.93,2.10 57.69,2.81 57.48,3.46 57.30,4.06 57.14,4.61 57.00,5.12 56.88,5.59 56.78,6.05 56.70,6.48 56.63,6.91 56.57,7.33 56.53,7.76 56.49,8.20 56.47,8.67 56.45,9.16 56.43,9.69 56.42,10.27 56.41,10.89 56.40,11.58 56.39,12.33"/>
    </edge>
    <edge id=":5_1" function="internal">
        <lane id=":5_1_0" index="0" disallow="pedestrian tram rail_urban rail rail_electric ship" speed="17.88" length="13.40" width="3.50" shape="55.39,-1.01 55.51,-0.24 55.62,0.50 55.72,1.23 55.82,1.93 55.91,2.63 55.99,3.31 56.06,3.98 56.13,4.65 56.19,5.31 56.24,5.97 56.28,6.63 56.32,7.30 56.35,7.98 56.37,8.66 56.39,9.36 56.40,10.07 56.40,10.80 56.40,11.56 56.39,12.33"/>
    </edge>
    <edge id=":6_0" function="internal">
        <lane id=":6_0_0" index="0" disallow="pedestrian tram rail_urban rail rail_electric ship" speed="10.43" length="9.72" width="3.50" shape="-80.83,27.63 -81.01,26.95 -81.17,26.33 -81.34,25.77 -81.51,25.27 -81.68,24.81 -81.86,24.39 -82.06,24.01 -82.27,23.66 -82.49,23.34 -82.75,23.03 -83.02,22.74 -83.32,22.46 -83.66,22.18 -84.03,21.90 -84.44,21.62 -84.89,21.32 -85.39,21.00 -85.93,20.66 -86.53,20.29"/>
    </edge>
    <edge id=":6_1" function="internal">
        <lane id=":6_1_0" index="0" disallow="pedestrian tram rail_urban rail rail_electric ship" speed="17.88" length="13.23" width="3.50" shape="-80.83,27.63 -81.02,26.87 -81.19,26.14 -81.36,25.44 -81.51,24.75 -81.66,24.07 -81.80,23.41 -81.93,22.76 -82.05,22.12 -82.16,21.48 -82.26,20.84 -82.36,20.19 -82.44,19.54 -82.52,18.88 -82.59,18.21 -82.65,17.53 -82.70,16.83 -82.74,16.10 -82.78,15.36 -82.80,14.58"/>
    </edge>
    <edge id=":7_0" function="internal">
        <lane id=":7_0_0" index="0" disallow="pedestrian tram rail_urban rail rail_electric ship" speed="17.88" length="8.84" width="3.50" shape="-82.81,14.38 -82.83,13.72 -82.85,13.12 -82.86,12.58 -82.88,12.10 -82.89,11.65 -82.90,11.24 -82.91,10.85 -82.92,10.49 -82.92,10.14 -82.91,9.79 -82.91,9.43 -82.90,9.07 -82.88,8.68 -82.86,8.27 -82.84,7.83 -82.81,7.34 -82.77,6.80 -82.73,6.21 -82.68,5.55"/>
    </edge>
    <edge id=":7_1" function="internal">
        <lane id=":7_1_0" index="0" disallow="pedestrian tram rail_urban rail rail_electric ship" speed="17.88" length="7.22" width="3.50" shape="-84.28,12.55 -84.09,12.04 -83.93,11.58 -83.78,11.17 -83.64,10.79 -83.52,10.45 -83.41,10.13 -83.32,9.83 -83.23,9.54 -83.15,9.26 -83.09,8.99 -83.03,8.70 -82.97,8.41 -82.93,8.10 -82.88,7.77 -82.84,7.40 -82.80,7.01 -82.76,6.57 -82.72,6.09 -82.68,5.55"/>
    </edge>
    <edge id=":8_0" function="internal">
        <lane id=":8_0_0" index="0" disallow="pedestrian tram rail_urban rail rail_electric ship" speed="6.87" length="7.76" width="3.50" shape="65.48,0.84 64.75,0.83 64.06,0.83 63.41,0.83 62.79,0.84 62.21,0.86 61.67,0.89 61.16,0.92 60.70,0.97 60.27,1.01 59.87,1.07 59.52,1.13 59.20,1.20 58.91,1.28 58.67,1.37 58.46,1.46 58.29,1.56 58.15,1.67 58.05,1.79 57.99,1.91"/>
    </edge>
    <edge id=":8_1" function="internal">
        <lane id=":8_1_0" index="0" disallow="pedestrian tram rail_urban rail rail_electric ship" speed="17.88" length="10.43" width="3.50" shape="65.48,0.84 64.72,0.84 64.03,0.85 63.40,0.87 62.82,0.90 62.28,0.93 61.78,0.96 61.30,0.99 60.85,1.01 60.41,1.02 59.98,1.02 59.56,0.99 59.12,0.95 58.67,0.87 58.20,0.77 57.70,0.63 57.17,0.45 56.60,0.23 55.97,-0.04 55.29,-0.35"/>
    </edge>
    <edge id=":9_0" function="internal">
        <lane id=":9_0_0" index="0" disallow="pedestrian tram rail_urban rail rail_electric ship" speed="17.88" length="2.99" width="3.50" shape="50.81,-5.64 50.00,-8.52"/>
    </edge>
    <edge id=":9_1" function="internal">
        <lane id=":9_1_0" index="0" disallow="pedestrian tram rail_urban rail rail_electric ship" speed="17.88" length="2.99" width="3.50" shape="50.81,-5.64 50.00,-8.52"/>
    </edge>

    <edge id="1" from="19" to="14" priority="3" type="highway.residential_speed_17.88" spreadType="center" length="41.92">
        <lane id="1_0" index="0" disallow="pedestrian tram rail_urban rail rail_electric ship" speed="17.88" length="41.92" width="3.50" customShape="1" shape="-6.24,-109.78 -6.22,-109.28 -6.20,-108.77 -6.19,-108.27 -6.17,-107.76 -6.15,-107.26 -6.13,-106.75 -6.11,-106.25 -6.10,-105.75 -6.08,-105.24 -6.06,-104.74 -6.04,-104.23 -6.02,-103.73 -6.00,-103.22 -5.99,-102.72 -5.97,-102.21 -5.95,-101.71 -5.93,-101.20 -5.91,-100.70 -5.90,-100.20 -5.88,-99.69 -5.86,-99.19 -5.84,-98.68 -5.82,-98.18 -5.81,-97.67 -5.79,-97.17 -5.77,-96.66 -5.75,-96.16 -5.73,-95.65 -5.71,-95.15 -5.70,-94.64 -5.68,-94.14 -5.66,-93.64 -5.64,-93.13 -5.62,-92.63 -5.61,-92.12 -5.59,-91.62 -5.57,-91.11 -5.55,-90.61 -5.53,-90.10 -5.51,-89.60 -5.50,-89.09 -5.48,-88.59 -5.46,-88.08 -5.44,-87.58 -5.42,-87.08 -5.41,-86.57 -5.39,-86.07 -5.37,-85.56 -5.35,-85.06 -5.33,-84.55 -5.31,-84.05 -5.30,-83.54 -5.28,-83.04 -5.26,-82.53 -5.24,-82.03 -5.22,-81.53 -5.21,-81.02 -5.19,-80.52 -5.17,-80.01 -5.15,-79.51 -5.13,-79.00 -5.11,-78.50 -5.10,-77.99 -5.08,-77.49 -5.06,-76.98 -5.04,-76.48 -5.02,-75.97 -5.01,-75.47 -4.99,-74.97 -4.97,-74.46 -4.95,-73.96 -4.93,-73.45 -4.92,-72.95 -4.90,-72.44 -4.88,-71.94 -4.86,-71.43 -4.84,-70.93 -4.82,-70.42 -4.81,-69.92 -4.79,-69.42 -4.77,-68.91 -4.75,-68.41 -4.73,-67.89"/>
    </edge>
    <edge id="10" from="13" to="2" priority="3" type="highway.residential_speed_17.88" spreadType="center" length="0.20">
        <lane id="10_0" index="0" disallow="pedestrian tram rail_urban rail rail_electric ship" speed="17.88" length="0.20" width="3.50" customShape="1" shape="-9.23,-61.02 -9.17,-61.21"/>
    </edge>
    <edge id="11" from="1" to="2" priority="3" type="highway.residential_speed_17.88" spreadType="center" length="7.05">
        <lane id="11_0" index="0" disallow="pedestrian tram rail_urban rail rail_electric ship" speed="17.88" length="7.05" width="3.50" customShape="1" shape="-1.04,-54.15 -1.66,-54.27 -2.30,-54.46 -2.92,-54.69 -3.52,-54.98 -4.09,-55.32 -4.64,-55.71 -5.15,-56.14 -5.62,-56.61 -6.05,-57.12 -6.42,-57.65 -6.65,-58.02"/>
    </edge>
    <edge id="17" from="20" to="21" priority="3" type="highway.residential_speed_17.88" spreadType="center" length="142.10">
        <lane id="17_0" index="0" disallow="pedestrian tram rail_urban rail rail_electric ship" speed="17.88" length="142.10" width="3.50" customShape="1" shape="-233.83,12.48 -233.33,12.49 -232.83,12.49 -232.33,12.50 -231.83,12.51 -231.32,12.51 -230.82,12.52 -230.32,12.52 -229.82,12.53 -229.32,12.54 -228.82,12.54 -228.32,12.55 -227.82,12.56 -227.32,12.56 -226.82,12.57 -226.32,12.57 -225.82,12.58 -225.32,12.59 -224.82,12.59 -224.31,12.60 -223.81,12.61 -223.31,12.61 -222.81,12.62 -222.31,12.62 -221.81,12.63 -221.31,12.64 -220.81,12.64 -220.31,12.65 -219.81,12.66 -219.31,12.66 -218.81,12.67 -218.31,12.67 -217.81,12.68 -217.31,12.69 -216.80,12.69 -216.30,12.70 -215.80,12.71 -215.30,12.71 -214.80,12.72 -214.30,12.72 -213.80,12.73 -213.30,12.74 -212.80,12.74 -212.30,12.75 -211.80,12.76 -211.30,12.76 -210.80,12.77 -210.29,12.78 -209.79,12.78 -209.29,12.79 -208.79,12.79 -208.29,12.80 -207.79,12.81 -207.29,12.81 -206.79,12.82 -206.29,12.83 -205.79,12.83 -205.29,12.84 -204.79,12.84 -204.29,12.85 -203.79,12.86 -203.29,12.86 -202.78,12.87 -202.28,12.88 -201.78,12.88 -201.28,12.89 -200.78,12.89 -200.28,12.90 -199.78,12.91 -199.28,12.91 -198.78,12.92 -198.28,12.93 -197.78,12.93 -197.28,12.94 -196.78,12.94 -196.28,12.95 -195.77,12.96 -195.27,12.96 -194.77,12.97 -194.27,12.98 -193.77,12.98 -193.27,12.99 -192.77,12.99 -192.27,13.00 -191.77,13.01 -191.27,13.01 -190.77,13.02 -190.27,13.03 -189.77,13.03 -189.27,13.04 -188.77,13.04 -188.26,13.05 -187.76,13.06 -187.26,13.06 -186.76,13.07 -186.26,13.08 -185.76,13.08 -185.26,13.09 -184.76,13.10 -184.26,13.10 -183.76,13.11 -183.26,13.11 -182.76,13.12 -182.26,13.13 -181.76,13.13 -181.25,13.14 -180.75,13.15 -180.25,13.15 -179.75,13.16 -179.25,13.16 -178.75,13.17 -178.25,13.18 -177.75,13.18 -177.25,13.19 -176.75,13.20 -176.25,13.20 -175.75,13.21 -175.25,13.21 -174.75,13.22 -174.24,13.23 -173.74,13.23 -173.24,13.24 -172.74,13.25 -172.24,13.25 -171.74,13.26 -171.24,13.26 -170.74,13.27 -170.24,13.28 -169.74,13.28 -169.24,13.29 -168.74,13.30 -168.24,13.30 -167.74,13.31 -167.24,13.31 -166.73,13.32 -166.23,13.33 -165.73,13.33 -165.23,13.34 -164.73,13.35 -164.23,13.35 -163.73,13.36 -163.23,13.36 -162.73,13.37 -162.23,13.38 -161.73,13.38 -161.23,13.39 -160.73,13.40 -160.22,13.40 -159.72,13.41 -159.22,13.42 -158.72,13.42 -158.22,13.43 -157.72,13.43 -157.22,13.44 -156.72,13.45 -156.22,13.45 -155.72,13.46 -155.22,13.47 -154.72,13.47 -154.22,13.48 -153.72,13.48 -153.22,13.49 -152.71,13.50 -152.21,13.50 -151.71,13.51 -151.21,13.52 -150.71,13.52 -150.21,13.53 -149.71,13.53 -149.21,13.54 -148.71,13.55 -148.21,13.55 -147.71,13.56 -147.21,13.57 -146.71,13.57 -146.21,13.58 -145.70,13.58 -145.20,13.59 -144.70,13.60 -144.20,13.60 -143.70,13.61 -143.20,13.62 -142.70,13.62 -142.20,13.63 -141.70,13.63 -141.20,13.64 -140.70,13.65 -140.20,13.65 -139.70,13.66 -139.20,13.67 -138.70,13.67 -138.19,13.68 -137.69,13.68 -137.19,13.69 -136.69,13.70 -136.19,13.70 -135.69,13.71 -135.19,13.72 -134.69,13.72 -134.19,13.73 -133.69,13.74 -133.19,13.74 -132.69,13.75 -132.19,13.75 -131.69,13.76 -131.19,13.77 -130.68,13.77 -130.18,13.78 -129.68,13.79 -129.18,13.79 -128.68,13.80 -128.18,13.80 -127.68,13.81 -127.18,13.82 -126.68,13.82 -126.18,13.83 -125.68,13.84 -125.18,13.84 -124.68,13.85 -124.17,13.85 -123.67,13.86 -123.17,13.87 -122.67,13.87 -122.17,13.88 -121.67,13.89 -121.17,13.89 -120.67,13.90 -120.17,13.90 -119.67,13.91 -119.17,13.92 -118.67,13.92 -118.17,13.93 -117.67,13.94 -117.17,13.94 -116.66,13.95 -116.16,13.95 -115.66,13.96 -115.16,13.97 -114.66,13.97 -114.16,13.98 -113.66,13.99 -113.16,13.99 -112.66,14.00 -112.16,14.00 -111.66,14.01 -111.16,14.02 -110.66,14.02 -110.16,14.03 -109.65,14.04 -109.15,14.04 -108.65,14.05 -108.15,14.06 -107.65,14.06 -107.15,14.07 -106.65,14.07 -106.15,14.08 -105.65,14.09 -105.15,14.09 -104.65,14.10 -104.15,14.11 -103.65,14.11 -103.15,14.12 -102.64,14.12 -102.14,14.13 -101.64,14.14 -101.14,14.14 -100.64,14.15 -100.14,14.16 -99.64,14.16 -99.14,14.17 -98.64,14.17 -98.14,14.18 -97.64,14.19 -97.14,14.19 -96.64,14.20 -96.14,14.21 -95.63,14.21 -95.13,14.22 -94.63,14.22 -94.13,14.23 -93.63,14.24 -93.13,14.24 -92.63,14.25 -92.13,14.26 -91.75,14.26"/>
    </edge>
    <edge id="18" from="21" to="24" priority="3" type="highway.residential_speed_17.88" spreadType="center" length="0.21">
        <lane id="18_0" index="0" disallow="pedestrian tram rail_urban rail rail_electric ship" speed="17.88" length="0.21" width="3.50" customShape="1" shape="-83.87,14.41 -83.69,14.52"/>
    </edge>
    <edge id="19" from="21" to="7" priority="3" type="highway.residential_speed_17.88" spreadType="center" length="0.19">
        <lane id="19_0" index="0" disallow="pedestrian tram rail_urban rail rail_electric ship" speed="17.88" length="0.19" width="3.50" customShape="1" shape="-84.35,12.73 -84.28,12.55"/>
    </edge>
    <edge id="2" from="14" to="15" priority="3" type="highway.residential_speed_17.88" spreadType="center" length="4.78">
        <lane id="2_0" index="0" disallow="pedestrian tram rail_urban rail rail_electric ship" speed="17.88" length="4.78" width="3.50" customShape="1" shape="-4.63,-64.89 -4.62,-64.68 -4.60,-64.11 -4.58,-63.60 -4.56,-63.08 -4.57,-62.41 -4.64,-61.74 -4.77,-61.08 -4.96,-60.44 -5.06,-60.17"/>
    </edge>
    <edge id="20" from="16" to="23" priority="3" type="highway.residential_speed_17.88" spreadType="center" length="141.83">