<?xml version="1.0" encoding="UTF-8"?>

<!-- generated on 2023-06-29 17:19:50.157503 by randomTrips.py UNKNOWN
<configuration>
    <net-file value="/home/tianzheng/Documents/Github/commonroad-scenario-designer/output/CircleJunction/84222612-b52a-45d6-873c-60d0f4ba8ea0.net.xml"/>
    <additional-files value="/home/tianzheng/Documents/Github/commonroad-scenario-designer/output/CircleJunction/84222612-b52a-45d6-873c-60d0f4ba8ea0.add.xml"/>
    <output-trip-file value="/home/tianzheng/Documents/Github/commonroad-scenario-designer/output/CircleJunction/84222612-b52a-45d6-873c-60d0f4ba8ea0.vehicles.trips.xml"/>
    <route-file value="/home/tianzheng/Documents/Github/commonroad-scenario-designer/output/CircleJunction/84222612-b52a-45d6-873c-60d0f4ba8ea0.vehicles.rou.xml"/>
    <trip-attributes value="departLane=&quot;best&quot; departSpeed=&quot;max&quot; departPos=&quot;random_free&quot;"/>
    <end value="30.0"/>
    <seed value="1234"/>
    <fringe-factor value="2147483646"/>
    <validate value="True"/>
    <period value="0.06593848598642331"/>
</configuration>
-->

<!-- generated on 2023-06-29 17:19:50 by Eclipse SUMO duarouter Version 1.17.0
<configuration xmlns:xsi="http://www.w3.org/2001/XMLSchema-instance" xsi:noNamespaceSchemaLocation="http://sumo.dlr.de/xsd/duarouterConfiguration.xsd">

    <input>
        <net-file value="/home/tianzheng/Documents/Github/commonroad-scenario-designer/output/CircleJunction/84222612-b52a-45d6-873c-60d0f4ba8ea0.net.xml"/>
        <additional-files value="/home/tianzheng/Documents/Github/commonroad-scenario-designer/output/CircleJunction/84222612-b52a-45d6-873c-60d0f4ba8ea0.add.xml"/>
        <route-files value="/home/tianzheng/Documents/Github/commonroad-scenario-designer/output/CircleJunction/84222612-b52a-45d6-873c-60d0f4ba8ea0.vehicles.trips.xml"/>
    </input>

    <output>
        <output-file value="/home/tianzheng/Documents/Github/commonroad-scenario-designer/output/CircleJunction/84222612-b52a-45d6-873c-60d0f4ba8ea0.vehicles.rou.xml"/>
        <alternatives-output value="NUL"/>
    </output>

    <time>
        <begin value="0.0"/>
        <end value="30.0"/>
    </time>

    <report>
        <no-warnings value="true"/>
        <ignore-errors value="true"/>
        <no-step-log value="true"/>
    </report>

</configuration>
-->

<routes xmlns:xsi="http://www.w3.org/2001/XMLSchema-instance" xsi:noNamespaceSchemaLocation="http://sumo.dlr.de/xsd/routes_file.xsd">
    <vType id="truck" length="7.50" minGap="2.50" maxSpeed="36.11" probability="0.80" speedFactor="normc(0.93,0.19,0.20,2.00)" vClass="truck" impatience="0.18" guiShape="truck" width="2.60" lcStrategic="14.87" lcCooperative="1.24" lcSpeedGain="18.92" lcKeepRight="0.87" lcImpatience="0.10" lcMaxSpeedLatStanding="0.00" lcSigma="0.18" accel="1.40" decel="3.69" sigma="0.59"/>
    <vehicle id="0" depart="0.00" departLane="best" departPos="random_free" departSpeed="max">
        <route edges="90 58 57 26 31"/>
    </vehicle>
    <vType id="passenger" length="5.00" minGap="2.50" maxSpeed="50.00" probability="4.00" speedFactor="normc(1.01,0.14,0.20,2.00)" vClass="passenger" impatience="0.49" guiShape="passenger" width="2.00" lcStrategic="27.12" lcCooperative="1.44" lcSpeedGain="7.59" lcKeepRight="0.88" lcImpatience="0.42" lcMaxSpeedLatStanding="0.00" lcSigma="0.19" accel="2.61" decel="4.04" sigma="0.53"/>
    <vehicle id="1" depart="0.07" departLane="best" departPos="random_free" departSpeed="max">
        <route edges="24 25 82 71 74 69 87"/>
    </vehicle>
    <vehicle id="2" depart="0.13" departLane="best" departPos="random_free" departSpeed="max">
        <route edges="90 58 57 26 31"/>
    </vehicle>
    <vehicle id="3" depart="0.20" departLane="best" departPos="random_free" departSpeed="max">
        <route edges="90 34 44 11 15"/>
    </vehicle>
    <vehicle id="4" depart="0.26" departLane="best" departPos="random_free" departSpeed="max">
        <route edges="90 34 44 11 15"/>
    </vehicle>
    <vehicle id="5" depart="0.33" departLane="best" departPos="random_free" departSpeed="max">
        <route edges="24 25 82 71 74 69 87"/>
    </vehicle>
    <vehicle id="6" depart="0.40" departLane="best" departPos="random_free" departSpeed="max">
        <route edges="8 2 66 27 31"/>
    </vehicle>
    <vehicle id="7" depart="0.46" departLane="best" departPos="random_free" departSpeed="max">
        <route edges="8 9 74 53 57 54 82 16 15"/>
    </vehicle>
    <vehicle id="8" depart="0.53" departLane="best" departPos="random_free" departSpeed="max">
        <route edges="24 25 82 16 15"/>
    </vehicle>
    <vehicle id="9" depart="0.59" departLane="best" departPos="random_free" departSpeed="max">
        <route edges="24 25 82 71 74 53 57 26 31"/>
    </vehicle>
    <vehicle id="10" depart="0.66" departLane="best" departPos="random_free" departSpeed="max">
        <route edges="90 34 44 11 15"/>
    </vehicle>
    <vehicle id="11" depart="0.73" departLane="best" departPos="random_free" departSpeed="max">
        <route edges="8 2 66 27 31"/>
    </vehicle>
    <vehicle id="12" depart="0.79" departLane="best" departPos="random_free" departSpeed="max">
        <route edges="8 9 74 53 57 54 82 16 15"/>
    </vehicle>
    <vehicle id="13" depart="0.86" departLane="best" departPos="random_free" departSpeed="max">
        <route edges="8 9 74 53 57 54 82 16 15"/>
    </vehicle>
    <vehicle id="14" depart="0.92" departLane="best" departPos="random_free" departSpeed="max">
        <route edges="8 2 66 27 31"/>
    </vehicle>
    <vehicle id="15" depart="0.99" departLane="best" departPos="random_free" departSpeed="max">
        <route edges="8 2 66 27 31"/>
    </vehicle>
    <vehicle id="16" depart="1.06" departLane="best" departPos="random_free" departSpeed="max">
        <route edges="24 25 82 71 74 69 87"/>
    </vehicle>
    <vehicle id="17" depart="1.12" departLane="best" departPos="random_free" departSpeed="max">
        <route edges="8 2 66 27 31"/>
    </vehicle>
    <vehicle id="18" depart="1.19" departLane="best" departPos="random_free" departSpeed="max">
        <route edges="24 25 82 71 74 53 57 26 31"/>
    </vehicle>
    <vehicle id="19" depart="1.25" departLane="best" departPos="random_free" departSpeed="max">
        <route edges="24 25 82 16 15"/>
    </vehicle>
    <vehicle id="20" depart="1.32" departLane="best" departPos="random_free" departSpeed="max">
        <route edges="8 2 66 27 31"/>
    </vehicle>
    <vehicle id="21" depart="1.38" departLane="best" departPos="random_free" departSpeed="max">
        <route edges="24 25 82 71 74 53 57 26 31"/>
    </vehicle>
    <vehicle id="22" depart="1.45" departLane="best" departPos="random_free" departSpeed="max">
        <route edges="24 25 82 71 74 53 57 26 31"/>
    </vehicle>
    <vehicle id="23" depart="1.52" departLane="best" departPos="random_free" departSpeed="max">
        <route edges="24 25 82 71 74 69 87"/>
    </vehicle>
    <vType id="bus" length="12.40" minGap="2.50" maxSpeed="23.61" probability="0.30" speedFactor="normc(1.06,0.18,0.20,2.00)" vClass="bus" impatience="0.18" guiShape="bus" width="2.70" lcStrategic="62.63" lcCooperative="1.48" lcSpeedGain="12.75" lcKeepRight="0.85" lcImpatience="0.27" lcMaxSpeedLatStanding="0.00" lcSigma="0.19" accel="1.17" decel="4.24" sigma="0.58"/>
    <vehicle id="24" depart="1.58" departLane="best" departPos="random_free" departSpeed="max">
        <route edges="90 34 44 46 66 67 79 76 87"/>
    </vehicle>
    <vehicle id="25" depart="1.65" departLane="best" departPos="random_free" departSpeed="max">
        <route edges="24 25 82 16 15"/>
    </vehicle>
    <vehicle id="26" depart="1.71" departLane="best" departPos="random_free" departSpeed="max">
        <route edges="24 25 82 16 15"/>
    </vehicle>
    <vehicle id="27" depart="1.78" departLane="best" departPos="random_free" departSpeed="max">
        <route edges="90 34 44 11 15"/>
    </vehicle>
    <vehicle id="28" depart="1.85" departLane="best" departPos="random_free" departSpeed="max">
        <route edges="24 25 82 71 74 69 87"/>
    </vehicle>
    <vehicle id="29" depart="1.91" departLane="best" departPos="random_free" departSpeed="max">
        <route edges="24 25 82 71 74 69 87"/>
    </vehicle>
    <vehicle id="30" depart="1.98" departLane="best" departPos="random_free" departSpeed="max">
        <route edges="24 25 82 71 74 53 57 26 31"/>
    </vehicle>
    <vehicle id="31" depart="2.04" departLane="best" departPos="random_free" departSpeed="max">
        <route edges="8 2 66 27 31"/>
    </vehicle>
    <vehicle id="32" depart="2.11" departLane="best" departPos="random_free" departSpeed="max">
        <route edges="90 58 57 26 31"/>
    </vehicle>
    <vehicle id="33" depart="2.18" departLane="best" departPos="random_free" departSpeed="max">
        <route edges="90 58 57 26 31"/>
    </vehicle>
    <vehicle id="34" depart="2.24" departLane="best" departPos="random_free" departSpeed="max">
        <route edges="90 34 44 46 66 67 79 76 87"/>
    </vehicle>
    <vehicle id="35" depart="2.31" departLane="best" departPos="random_free" departSpeed="max">
        <route edges="8 9 74 69 87"/>
    </vehicle>
    <vehicle id="36" depart="2.37" departLane="best" departPos="random_free" departSpeed="max">
        <route edges="90 34 44 11 15"/>
    </vehicle>
    <vehicle id="37" depart="2.44" departLane="best" departPos="random_free" departSpeed="max">
        <route edges="24 25 82 16 15"/>
    </vehicle>
    <vehicle id="38" depart="2.51" departLane="best" departPos="random_free" departSpeed="max">
        <route edges="8 9 74 53 57 54 82 16 15"/>
    </vehicle>
    <vehicle id="39" depart="2.57" departLane="best" departPos="random_free" departSpeed="max">
        <route edges="8 9 74 69 87"/>
    </vehicle>
    <vehicle id="40" depart="2.64" departLane="best" departPos="random_free" departSpeed="max">
        <route edges="8 9 74 69 87"/>
    </vehicle>
    <vType id="bicycle" length="2.00" minGap="1.00" maxSpeed="6.94" probability="0.20" speedFactor="normc(0.99,0.16,0.20,2.00)" vClass="bicycle" impatience="0.39" guiShape="bicycle" width="0.68" lcStrategic="63.77" lcCooperative="2.36" lcSpeedGain="17.43" lcKeepRight="0.87" lcImpatience="0.44" lcMaxSpeedLatStanding="0.00" lcSigma="0.16" accel="1.03" decel="3.35" sigma="0.64"/>
    <vehicle id="41" depart="2.70" departLane="best" departPos="random_free" departSpeed="max">
        <route edges="8 2 66 27 31"/>
    </vehicle>
    <vehicle id="42" depart="2.77" departLane="best" departPos="random_free" departSpeed="max">
        <route edges="8 9 74 69 87"/>
    </vehicle>
    <vehicle id="43" depart="2.84" departLane="best" departPos="random_free" departSpeed="max">
        <route edges="90 34 44 11 15"/>
    </vehicle>
    <vehicle id="44" depart="2.90" departLane="best" departPos="random_free" departSpeed="max">
        <route edges="90 34 44 11 15"/>
    </vehicle>
    <vehicle id="45" depart="2.97" departLane="best" departPos="random_free" departSpeed="max">
        <route edges="24 25 82 71 74 69 87"/>
    </vehicle>
    <vehicle id="46" depart="3.03" departLane="best" departPos="random_free" departSpeed="max">
        <route edges="90 34 44 46 66 67 79 76 87"/>
    </vehicle>
    <vehicle id="47" depart="3.10" departLane="best" departPos="random_free" departSpeed="max">
        <route edges="8 2 66 67 79 45 44 11 15"/>
    </vehicle>
    <vehicle id="48" depart="3.17" departLane="best" departPos="random_free" departSpeed="max">
        <route edges="8 9 74 53 57 54 82 16 15"/>
    </vehicle>
    <vehicle id="49" depart="3.23" departLane="best" departPos="random_free" departSpeed="max">
        <route edges="24 25 82 16 15"/>
    </vehicle>
    <vehicle id="50" depart="3.30" departLane="best" departPos="random_free" departSpeed="max">
        <route edges="8 9 74 53 57 54 82 16 15"/>
    </vehicle>
    <vehicle id="51" depart="3.36" departLane="best" departPos="random_free" departSpeed="max">
        <route edges="90 34 44 46 66 67 79 76 87"/>
    </vehicle>
    <vehicle id="52" depart="3.43" departLane="best" departPos="random_free" departSpeed="max">
        <route edges="24 25 82 71 74 69 87"/>
    </vehicle>
    <vehicle id="53" depart="3.49" departLane="best" departPos="random_free" departSpeed="max">
        <route edges="24 25 82 16 15"/>
    </vehicle>
    <vehicle id="54" depart="3.56" departLane="best" departPos="random_free" departSpeed="max">
        <route edges="24 25 82 71 74 53 57 26 31"/>
    </vehicle>
    <vehicle id="55" depart="3.63" departLane="best" departPos="random_free" departSpeed="max">
        <route edges="24 25 82 71 74 53 57 26 31"/>
    </vehicle>
    <vehicle id="56" depart="3.69" departLane="best" departPos="random_free" departSpeed="max">
        <route edges="90 34 44 46 66 67 79 76 87"/>
    </vehicle>
    <vehicle id="57" depart="3.76" departLane="best" departPos="random_free" departSpeed="max">
        <route edges="8 9 74 69 87"/>
    </vehicle>
    <vehicle id="58" depart="3.82" departLane="best" departPos="random_free" departSpeed="max">
        <route edges="8 9 74 69 87"/>
    </vehicle>
    <vehicle id="59" depart="3.89" departLane="best" departPos="random_free" departSpeed="max">
        <route edges="8 9 74 69 87"/>
    </vehicle>
    <vehicle id="60" depart="3.96" departLane="best" departPos="random_free" departSpeed="max">
        <route edges="24 25 82 71 74 53 57 26 31"/>
    </vehicle>
    <vehicle id="61" depart="4.02" departLane="best" departPos="random_free" departSpeed="max">
        <route edges="24 25 82 71 74 69 87"/>
    </vehicle>
    <vehicle id="62" depart="4.09" departLane="best" departPos="random_free" departSpeed="max">
        <route edges="8 2 66 27 31"/>
    </vehicle>
    <vehicle id="63" depart="4.15" departLane="best" departPos="random_free" departSpeed="max">
        <route edges="90 58 57 26 31"/>
    </vehicle>
    <vehicle id="64" depart="4.22" departLane="best" departPos="random_free" departSpeed="max">
        <route edges="8 9 74 53 57 54 82 16 15"/>
    </vehicle>
    <vehicle id="65" depart="4.29" departLane="best" departPos="random_free" departSpeed="max">
        <route edges="8 9 74 69 87"/>
    </vehicle>
    <vehicle id="66" depart="4.35" departLane="best" departPos="random_free" departSpeed="max">
        <route edges="90 34 44 11 15"/>
    </vehicle>
    <vehicle id="67" depart="4.42" departLane="best" departPos="random_free" departSpeed="max">
        <route edges="24 25 82 16 15"/>
    </vehicle>
    <vehicle id="68" depart="4.48" departLane="best" departPos="random_free" departSpeed="max">
        <route edges="90 58 57 26 31"/>
    </vehicle>
    <vehicle id="69" depart="4.55" departLane="best" departPos="random_free" departSpeed="max">
        <route edges="90 34 44 11 15"/>
    </vehicle>
    <vehicle id="70" depart="4.62" departLane="best" departPos="random_free" departSpeed="max">
        <route edges="24 25 82 71 74 53 57 26 31"/>
    </vehicle>
    <vehicle id="71" depart="4.68" departLane="best" departPos="random_free" departSpeed="max">
        <route edges="90 34 44 11 15"/>
    </vehicle>
    <vehicle id="72" depart="4.75" departLane="best" departPos="random_free" departSpeed="max">
        <route edges="90 58 57 26 31"/>
    </vehicle>
    <vehicle id="73" depart="4.81" departLane="best" departPos="random_free" departSpeed="max">
        <route edges="90 34 44 46 66 67 79 76 87"/>
    </vehicle>
    <vehicle id="74" depart="4.88" departLane="best" departPos="random_free" departSpeed="max">
        <route edges="8 9 74 69 87"/>
    </vehicle>
    <vehicle id="75" depart="4.95" departLane="best" departPos="random_free" departSpeed="max">
        <route edges="8 9 74 69 87"/>
    </vehicle>
    <vehicle id="76" depart="5.01" departLane="best" departPos="random_free" departSpeed="max">
        <route edges="90 34 44 46 66 67 79 76 87"/>
    </vehicle>
    <vehicle id="77" depart="5.08" departLane="best" departPos="random_free" departSpeed="max">
        <route edges="24 25 82 16 15"/>
    </vehicle>
    <vehicle id="78" depart="5.14" departLane="best" departPos="random_free" departSpeed="max">
        <route edges="8 9 74 69 87"/>
    </vehicle>
    <vehicle id="79" depart="5.21" departLane="best" departPos="random_free" departSpeed="max">
        <route edges="24 25 82 16 15"/>
    </vehicle>
    <vehicle id="80" depart="5.28" departLane="best" departPos="random_free" departSpeed="max">
        <route edges="8 9 74 53 57 54 82 16 15"/>
    </vehicle>
    <vehicle id="81" depart="5.34" departLane="best" departPos="random_free" departSpeed="max">
        <route edges="90 58 57 26 31"/>
    </vehicle>
    <vehicle id="82" depart="5.41" departLane="best" departPos="random_free" departSpeed="max">
        <route edges="24 25 82 71 74 69 87"/>
    </vehicle>
    <vehicle id="83" depart="5.47" departLane="best" departPos="random_free" departSpeed="max">
        <route edges="8 9 74 69 87"/>
    </vehicle>
    <vehicle id="84" depart="5.54" departLane="best" departPos="random_free" departSpeed="max">
        <route edges="24 25 82 16 15"/>
    </vehicle>
    <vehicle id="85" depart="5.60" departLane="best" departPos="random_free" departSpeed="max">
        <route edges="24 25 82 71 74 53 57 26 31"/>
    </vehicle>
    <vehicle id="86" depart="5.67" departLane="best" departPos="random_free" departSpeed="max">
        <route edges="8 9 74 69 87"/>
    </vehicle>
    <vehicle id="87" depart="5.74" departLane="best" departPos="random_free" departSpeed="max">
        <route edges="8 2 66 27 31"/>
    </vehicle>
    <vehicle id="88" depart="5.80" departLane="best" departPos="random_free" departSpeed="max">
        <route edges="8 9 74 53 57 54 82 16 15"/>
    </vehicle>
    <vehicle id="89" depart="5.87" departLane="best" departPos="random_free" departSpeed="max">
        <route edges="8 2 66 27 31"/>
    </vehicle>
    <vehicle id="90" depart="5.93" departLane="best" departPos="random_free" departSpeed="max">
        <route edges="24 25 82 71 74 53 57 26 31"/>
    </vehicle>
    <vehicle id="91" depart="6.00" departLane="best" departPos="random_free" departSpeed="max">
        <route edges="90 34 44 46 66 27 31"/>
    </vehicle>
    <vehicle id="92" depart="6.07" departLane="best" departPos="random_free" departSpeed="max">
        <route edges="90 58 57 26 31"/>
    </vehicle>
    <vehicle id="93" depart="6.13" departLane="best" departPos="random_free" departSpeed="max">
        <route edges="90 34 44 46 66 67 79 76 87"/>
    </vehicle>
    <vehicle id="94" depart="6.20" departLane="best" departPos="random_free" departSpeed="max">
        <route edges="8 9 74 53 57 54 82 16 15"/>
    </vehicle>
    <vehicle id="95" depart="6.26" departLane="best" departPos="random_free" departSpeed="max">
        <route edges="8 9 74 69 87"/>
    </vehicle>
    <vehicle id="96" depart="6.33" departLane="best" departPos="random_free" departSpeed="max">
        <route edges="24 25 82 16 15"/>
    </vehicle>
    <vehicle id="97" depart="6.40" departLane="best" departPos="random_free" departSpeed="max">
        <route edges="90 58 57 26 31"/>
    </vehicle>
    <vehicle id="98" depart="6.46" departLane="best" departPos="random_free" departSpeed="max">
        <route edges="90 34 44 46 66 67 79 76 87"/>
    </vehicle>
    <vehicle id="99" depart="6.53" departLane="best" departPos="random_free" departSpeed="max">
        <route edges="90 34 44 11 15"/>
    </vehicle>
    <vehicle id="100" depart="6.59" departLane="best" departPos="random_free" departSpeed="max">
        <route edges="90 34 44 11 15"/>
    </vehicle>
    <vehicle id="101" depart="6.66" departLane="best" departPos="random_free" departSpeed="max">
        <route edges="90 34 44 11 15"/>
    </vehicle>
    <vehicle id="102" depart="6.73" departLane="best" departPos="random_free" departSpeed="max">
        <route edges="24 25 82 71 74 69 87"/>
    </vehicle>
    <vehicle id="103" depart="6.79" departLane="best" departPos="random_free" departSpeed="max">
        <route edges="24 25 82 71 74 53 57 26 31"/>
    </vehicle>
    <vehicle id="104" depart="6.86" departLane="best" departPos="random_free" departSpeed="max">
        <route edges="8 2 66 27 31"/>
    </vehicle>
    <vehicle id="105" depart="6.92" departLane="best" departPos="random_free" departSpeed="max">
        <route edges="8 9 74 53 57 54 82 16 15"/>
    </vehicle>
    <vehicle id="106" depart="6.99" departLane="best" departPos="random_free" departSpeed="max">
        <route edges="24 25 82 71 74 69 87"/>
    </vehicle>
    <vehicle id="107" depart="7.06" departLane="best" departPos="random_free" departSpeed="max">
        <route edges="8 2 66 27 31"/>
    </vehicle>
    <vehicle id="108" depart="7.12" departLane="best" departPos="random_free" departSpeed="max">
        <route edges="90 34 44 11 15"/>
    </vehicle>
    <vehicle id="109" depart="7.19" departLane="best" departPos="random_free" departSpeed="max">
        <route edges="24 25 82 16 15"/>
    </vehicle>
    <vehicle id="110" depart="7.25" departLane="best" departPos="random_free" departSpeed="max">
        <route edges="24 25 82 71 74 69 87"/>
    </vehicle>
    <vehicle id="111" depart="7.32" departLane="best" departPos="random_free" departSpeed="max">
        <route edges="90 58 57 26 31"/>
    </vehicle>
    <vehicle id="112" depart="7.39" departLane="best" departPos="random_free" departSpeed="max">
        <route edges="90 58 57 26 31"/>
    </vehicle>
    <vehicle id="113" depart="7.45" departLane="best" departPos="random_free" departSpeed="max">
        <route edges="8 2 66 27 31"/>
    </vehicle>
    <vehicle id="114" depart="7.52" departLane="best" departPos="random_free" departSpeed="max">
        <route edges="24 25 82 71 74 69 87"/>
    </vehicle>
    <vehicle id="115" depart="7.58" departLane="best" departPos="random_free" departSpeed="max">
        <route edges="24 25 82 71 74 69 87"/>
    </vehicle>
    <vehicle id="116" depart="7.65" departLane="best" departPos="random_free" departSpeed="max">
        <route edges="90 34 44 11 15"/>
    </vehicle>
    <vehicle id="117" depart="7.71" departLane="best" departPos="random_free" departSpeed="max">
        <route edges="8 2 66 27 31"/>
    </vehicle>
    <vehicle id="118" depart="7.78" departLane="best" departPos="random_free" departSpeed="max">
        <route edges="90 34 44 46 66 67 79 76 87"/>
    </vehicle>
    <vehicle id="119" depart="7.85" departLane="best" departPos="random_free" departSpeed="max">
        <route edges="24 25 82 71 74 53 57 26 31"/>
    </vehicle>
    <vehicle id="120" depart="7.91" departLane="best" departPos="random_free" departSpeed="max">
        <route edges="24 25 82 71 74 53 57 26 31"/>
    </vehicle>
    <vehicle id="121" depart="7.98" departLane="best" departPos="random_free" departSpeed="max">
        <route edges="90 34 44 46 66 67 79 76 87"/>
    </vehicle>
    <vehicle id="122" depart="8.04" departLane="best" departPos="random_free" departSpeed="max">
        <route edges="24 25 82 71 74 53 57 26 31"/>
    </vehicle>
    <vehicle id="123" depart="8.11" departLane="best" departPos="random_free" departSpeed="max">
        <route edges="8 9 74 53 57 54 82 16 15"/>
    </vehicle>
    <vehicle id="124" depart="8.18" departLane="best" departPos="random_free" departSpeed="max">
        <route edges="90 34 44 11 15"/>
    </vehicle>
    <vehicle id="125" depart="8.24" departLane="best" departPos="random_free" departSpeed="max">
        <route edges="24 18 79 45 44 46 66 27 31"/>
    </vehicle>
    <vehicle id="126" depart="8.31" departLane="best" departPos="random_free" departSpeed="max">
        <route edges="8 9 74 69 87"/>
    </vehicle>
    <vehicle id="127" depart="8.37" departLane="best" departPos="random_free" departSpeed="max">
        <route edges="90 34 44 11 15"/>
    </vehicle>
    <vehicle id="128" depart="8.44" departLane="best" departPos="random_free" departSpeed="max">
        <route edges="90 58 57 26 31"/>
    </vehicle>
    <vehicle id="129" depart="8.51" departLane="best" departPos="random_free" departSpeed="max">
        <route edges="8 2 66 27 31"/>
    </vehicle>
    <vehicle id="130" depart="8.57" departLane="best" departPos="random_free" departSpeed="max">
        <route edges="8 2 66 27 31"/>
    </vehicle>
    <vehicle id="131" depart="8.64" departLane="best" departPos="random_free" departSpeed="max">
        <route edges="90 34 44 46 66 67 79 76 87"/>
    </vehicle>
    <vehicle id="132" depart="8.70" departLane="best" departPos="random_free" departSpeed="max">
        <route edges="90 34 44 46 66 67 79 76 87"/>
    </vehicle>
    <vehicle id="133" depart="8.77" departLane="best" departPos="random_free" departSpeed="max">
        <route edges="8 9 74 53 57 54 82 16 15"/>
    </vehicle>
    <vehicle id="134" depart="8.84" departLane="best" departPos="random_free" departSpeed="max">
        <route edges="24 25 82 71 74 69 87"/>
    </vehicle>
    <vehicle id="135" depart="8.90" departLane="best" departPos="random_free" departSpeed="max">
        <route edges="8 9 74 69 87"/>
    </vehicle>
    <vehicle id="136" depart="8.97" departLane="best" departPos="random_free" departSpeed="max">
        <route edges="90 58 57 26 31"/>
    </vehicle>
    <vehicle id="137" depart="9.03" departLane="best" departPos="random_free" departSpeed="max">
        <route edges="8 9 74 53 57 54 82 16 15"/>
    </vehicle>
    <vehicle id="138" depart="9.10" departLane="best" departPos="random_free" departSpeed="max">
        <route edges="8 2 66 67 79 45 44 11 15"/>
    </vehicle>
    <vehicle id="139" depart="9.17" departLane="best" departPos="random_free" departSpeed="max">
        <route edges="24 25 82 71 74 69 87"/>
    </vehicle>
    <vehicle id="140" depart="9.23" departLane="best" departPos="random_free" departSpeed="max">
        <route edges="24 25 82 71 74 69 87"/>
    </vehicle>
    <vehicle id="141" depart="9.30" departLane="best" departPos="random_free" departSpeed="max">
        <route edges="8 9 74 69 87"/>
    </vehicle>
    <vehicle id="142" depart="9.36" departLane="best" departPos="random_free" departSpeed="max">
        <route edges="90 34 44 46 66 67 79 76 87"/>
    </vehicle>
    <vehicle id="143" depart="9.43" departLane="best" departPos="random_free" departSpeed="max">
        <route edges="8 2 66 27 31"/>
    </vehicle>
    <vehicle id="144" depart="9.50" departLane="best" departPos="random_free" departSpeed="max">
        <route edges="24 18 79 45 44 46 66 27 31"/>
    </vehicle>
    <vehicle id="145" depart="9.56" departLane="best" departPos="random_free" departSpeed="max">
        <route edges="24 25 82 16 15"/>
    </vehicle>
    <vehicle id="146" depart="9.63" departLane="best" departPos="random_free" departSpeed="max">
        <route edges="90 58 57 26 31"/>
    </vehicle>
    <vehicle id="147" depart="9.69" departLane="best" departPos="random_free" departSpeed="max">
        <route edges="90 58 57 26 31"/>
    </vehicle>
    <vehicle id="148" depart="9.76" departLane="best" departPos="random_free" departSpeed="max">
        <route edges="24 25 82 71 74 69 87"/>
    </vehicle>
    <vehicle id="149" depart="9.82" departLane="best" departPos="random_free" departSpeed="max">
        <route edges="8 9 74 53 57 54 82 16 15"/>
    </vehicle>
    <vehicle id="150" depart="9.89" departLane="best" departPos="random_free" departSpeed="max">
        <route edges="90 58 57 26 31"/>
    </vehicle>
    <vehicle id="151" depart="9.96" departLane="best" departPos="random_free" departSpeed="max">
        <route edges="8 2 66 27 31"/>
    </vehicle>
    <vehicle id="152" depart="10.02" departLane="best" departPos="random_free" departSpeed="max">
        <route edges="8 9 74 69 87"/>
    </vehicle>
    <vehicle id="153" depart="10.09" departLane="best" departPos="random_free" departSpeed="max">
        <route edges="24 25 82 16 15"/>
    </vehicle>
    <vehicle id="154" depart="10.15" departLane="best" departPos="random_free" departSpeed="max">
        <route edges="24 25 82 71 74 69 87"/>
    </vehicle>
    <vehicle id="155" depart="10.22" departLane="best" departPos="random_free" departSpeed="max">
        <route edges="24 25 82 71 74 53 57 26 31"/>
    </vehicle>
    <vehicle id="156" depart="10.29" departLane="best" departPos="random_free" departSpeed="max">
        <route edges="90 58 57 26 31"/>
    </vehicle>
    <vehicle id="157" depart="10.35" departLane="best" departPos="random_free" departSpeed="max">
        <route edges="8 2 66 27 31"/>
    </vehicle>
    <vehicle id="158" depart="10.42" departLane="best" departPos="random_free" departSpeed="max">
        <route edges="24 25 82 71 74 53 57 26 31"/>
    </vehicle>
    <vehicle id="159" depart="10.48" departLane="best" departPos="random_free" departSpeed="max">
        <route edges="90 34 44 46 66 67 79 76 87"/>
    </vehicle>
    <vehicle id="160" depart="10.55" departLane="best" departPos="random_free" departSpeed="max">
        <route edges="8 2 66 27 31"/>
    </vehicle>
    <vehicle id="161" depart="10.62" departLane="best" departPos="random_free" departSpeed="max">
        <route edges="90 34 44 46 66 67 79 76 87"/>
    </vehicle>
    <vehicle id="162" depart="10.68" departLane="best" departPos="random_free" departSpeed="max">
        <route edges="90 58 57 26 31"/>
    </vehicle>
    <vehicle id="163" depart="10.75" departLane="best" departPos="random_free" departSpeed="max">
        <route edges="8 9 74 53 57 54 82 16 15"/>
    </vehicle>
    <vehicle id="164" depart="10.81" departLane="best" departPos="random_free" departSpeed="max">
        <route edges="24 25 82 71 74 69 87"/>
    </vehicle>
    <vehicle id="165" depart="10.88" departLane="best" departPos="random_free" departSpeed="max">
        <route edges="24 25 82 71 74 69 87"/>
    </vehicle>
    <vehicle id="166" depart="10.95" departLane="best" departPos="random_free" departSpeed="max">
        <route edges="8 9 74 69 87"/>
    </vehicle>