<!-- generated on 2023-06-29 17:19:49 by Eclipse SUMO netconvert Version 1.17.0
<configuration xmlns:xsi="http://www.w3.org/2001/XMLSchema-instance" xsi:noNamespaceSchemaLocation="http://sumo.dlr.de/xsd/netconvertConfiguration.xsd">

    <input>
        <node-files value="/home/tianzheng/Documents/Github/commonroad-scenario-designer/output/CircleJunction/84222612-b52a-45d6-873c-60d0f4ba8ea0.nod.xml"/>
        <edge-files value="/home/tianzheng/Documents/Github/commonroad-scenario-designer/output/CircleJunction/84222612-b52a-45d6-873c-60d0f4ba8ea0.edg.xml"/>
        <connection-files value="/home/tianzheng/Documents/Github/commonroad-scenario-designer/output/CircleJunction/84222612-b52a-45d6-873c-60d0f4ba8ea0.con.xml"/>
        <tllogic-files value="/home/tianzheng/Documents/Github/commonroad-scenario-designer/output/CircleJunction/84222612-b52a-45d6-873c-60d0f4ba8ea0.tll.xml"/>
        <type-files value="/home/tianzheng/Documents/Github/commonroad-scenario-designer/output/CircleJunction/84222612-b52a-45d6-873c-60d0f4ba8ea0.typ.xml"/>
    </input>

    <output>
        <output-file value="/home/tianzheng/Documents/Github/commonroad-scenario-designer/output/CircleJunction/84222612-b52a-45d6-873c-60d0f4ba8ea0.net.xml"/>
    </output>

    <processing>
        <geometry.remove.keep-edges.explicit value="true"/>
        <geometry.remove.min-length value="0.0"/>
        <geometry.avoid-overlap value="true"/>
        <offset.disable-normalization value="true"/>
    </processing>

    <tls_building>
        <tls.guess-signals value="true"/>
        <tls.green.time value="50"/>
        <tls.yellow.time value="10"/>
        <tls.red.time value="50"/>
        <tls.allred.time value="50"/>
        <tls.left-green.time value="50"/>
        <tls.crossing-min.time value="50"/>
        <tls.crossing-clearance.time value="50"/>
        <tls.group-signals value="true"/>
    </tls_building>

    <junctions>
        <no-turnarounds value="true"/>
        <junctions.internal-link-detail value="20"/>
    </junctions>

    <random_number>
        <seed value="1234"/>
    </random_number>

</configuration>
--><net xmlns:xsi="http://www.w3.org/2001/XMLSchema-instance" version="1.16" junctionCornerDetail="5" junctionLinkDetail="20" limitTurnSpeed="5.50" xsi:noNamespaceSchemaLocation="http://sumo.dlr.de/xsd/net_file.xsd">

    <location netOffset="0.00,0.00" convBoundary="-233.90,-109.86,183.67,24.10" origBoundary="-233.92,-109.92,183.71,84.39" projParameter="!"/>

    <type id="highway.bridleway" priority="1" speed="2.78" allow="pedestrian" oneway="1"/>
    <type id="highway.bus_guideway" priority="1" speed="27.78" allow="bus" oneway="1"/>
    <type id="highway.cycleway" priority="1" speed="8.33" allow="bicycle"/>
    <type id="highway.footway" priority="1" speed="2.78" allow="pedestrian" oneway="1"/>
    <type id="highway.ford" priority="1" speed="2.78" allow="army"/>
    <type id="highway.living_street" priority="2" speed="2.78" disallow="tram rail_urban rail rail_electric ship"/>
    <type id="highway.motorway" priority="14" speed="39.44" disallow="pedestrian moped bicycle tram rail_urban rail rail_electric ship" oneway="1"/>
    <type id="highway.motorway_link" priority="9" speed="22.22" disallow="pedestrian moped bicycle tram rail_urban rail rail_electric ship" oneway="1"/>
    <type id="highway.path" priority="1" speed="2.78" allow="pedestrian bicycle"/>
    <type id="highway.pedestrian" priority="1" speed="2.78" allow="pedestrian" oneway="1"/>
    <type id="highway.primary" priority="12" speed="27.78" disallow="pedestrian tram rail_urban rail rail_electric ship"/>
    <type id="highway.primary_link" priority="7" speed="22.22" disallow="pedestrian tram rail_urban rail rail_electric ship"/>
    <type id="highway.raceway" priority="15" speed="83.33" allow="vip"/>
    <type id="highway.residential" priority="3" speed="13.89" disallow="pedestrian tram rail_urban rail rail_electric ship"/>
    <type id="highway.residential_speed_17.88" priority="3" speed="17.88" disallow="pedestrian tram rail_urban rail rail_electric ship"/>
    <type id="highway.secondary" priority="11" speed="27.78" disallow="pedestrian tram rail_urban rail rail_electric ship"/>
    <type id="highway.secondary_link" priority="6" speed="22.22" disallow="pedestrian tram rail_urban rail rail_electric ship"/>
    <type id="highway.service" priority="1" speed="5.56" allow="pedestrian delivery bicycle"/>
    <type id="highway.stairs" priority="1" speed="1.39" allow="pedestrian" oneway="1"/>
    <type id="highway.step" priority="1" speed="1.39" allow="pedestrian" oneway="1"/>
    <type id="highway.steps" priority="1" speed="1.39" allow="pedestrian" oneway="1"/>
    <type id="highway.tertiary" priority="10" speed="22.22" disallow="pedestrian tram rail_urban rail rail_electric ship"/>
    <type id="highway.tertiary_link" priority="5" speed="22.22" disallow="pedestrian tram rail_urban rail rail_electric ship"/>
    <type id="highway.track" priority="1" speed="5.56" allow="pedestrian motorcycle moped bicycle"/>
    <type id="highway.trunk" priority="13" speed="27.78" disallow="pedestrian bicycle tram rail_urban rail rail_electric ship"/>
    <type id="highway.trunk_link" priority="8" speed="22.22" disallow="pedestrian bicycle tram rail_urban rail rail_electric ship"/>
    <type id="highway.unclassified" priority="4" speed="13.89" disallow="tram rail_urban rail rail_electric ship"/>
    <type id="highway.unsurfaced" priority="1" speed="8.33" disallow="tram rail_urban rail rail_electric ship"/>
    <type id="railway.highspeed" priority="21" speed="69.44" allow="rail" oneway="1"/>
    <type id="railway.light_rail" priority="19" speed="27.78" allow="rail_urban" oneway="1"/>
    <type id="railway.preserved" priority="16" speed="27.78" allow="rail" oneway="1"/>
    <type id="railway.rail" priority="20" speed="44.44" allow="rail" oneway="1"/>
    <type id="railway.subway" priority="18" speed="27.78" allow="rail_urban" oneway="1"/>
    <type id="railway.tram" priority="17" speed="13.89" allow="tram" oneway="1"/>

    <edge id=":1_0" function="internal">
        <lane id=":1_0_0" index="0" disallow="pedestrian tram rail_urban rail rail_electric ship" speed="17.88" length="8.13" width="2.00" shape="1.09,-49.72 0.50,-49.87 -0.03,-50.00 -0.51,-50.13 -0.95,-50.25 -1.34,-50.36 -1.71,-50.46 -2.05,-50.55 -2.38,-50.64 -2.70,-50.72 -3.01,-50.79 -3.33,-50.86 -3.66,-50.92 -4.01,-50.97 -4.38,-51.02 -4.79,-51.07 -5.23,-51.11 -5.73,-51.14 -6.27,-51.17 -6.88,-51.20"/>
        <lane id=":1_0_1" index="1" disallow="pedestrian tram rail_urban rail rail_electric ship" speed="17.88" length="8.28" width="0.64" shape="1.36,-51.01 0.76,-51.16 0.22,-51.30 -0.27,-51.42 -0.71,-51.54 -1.12,-51.65 -1.49,-51.75 -1.84,-51.84 -2.17,-51.92 -2.50,-52.00 -2.82,-52.07 -3.14,-52.13 -3.48,-52.19 -3.83,-52.25 -4.21,-52.30 -4.63,-52.34 -5.08,-52.38 -5.58,-52.42 -6.14,-52.45 -6.76,-52.48"/>
        <lane id=":1_0_2" index="2" disallow="pedestrian tram rail_urban rail rail_electric ship" speed="17.88" length="8.35" width="0.50" shape="1.48,-51.57 0.88,-51.72 0.33,-51.85 -0.16,-51.98 -0.61,-52.10 -1.02,-52.21 -1.40,-52.31 -1.75,-52.40 -2.08,-52.48 -2.41,-52.56 -2.73,-52.63 -3.06,-52.70 -3.40,-52.76 -3.76,-52.81 -4.14,-52.86 -4.56,-52.90 -5.02,-52.95 -5.52,-52.98 -6.08,-53.02 -6.71,-53.05"/>
        <lane id=":1_0_3" index="3" disallow="pedestrian tram rail_urban rail rail_electric ship" speed="17.88" length="8.57" width="3.50" shape="1.90,-53.53 1.28,-53.68 0.71,-53.82 0.21,-53.94 -0.25,-54.06 -0.67,-54.17 -1.06,-54.27 -1.42,-54.36 -1.77,-54.44 -2.10,-54.52 -2.44,-54.59 -2.77,-54.65 -3.12,-54.71 -3.49,-54.76 -3.89,-54.81 -4.32,-54.86 -4.79,-54.90 -5.31,-54.94 -5.88,-54.98 -6.52,-55.02"/>
    </edge>
    <edge id=":1_4" function="internal">
        <lane id=":1_4_0" index="0" disallow="pedestrian tram rail_urban rail rail_electric ship" speed="9.53" length="12.18" width="3.50" shape="1.90,-53.53 1.07,-53.74 0.27,-53.96 -0.48,-54.20 -1.20,-54.46 -1.89,-54.73 -2.53,-55.02 -3.15,-55.33 -3.72,-55.65 -4.26,-55.98 -4.76,-56.33 -5.22,-56.70 -5.65,-57.08 -6.04,-57.48 -6.40,-57.90 -6.71,-58.33 -7.00,-58.77 -7.24,-59.24 -7.45,-59.71 -7.62,-60.21"/>
    </edge>
    <edge id=":10_0" function="internal">
        <lane id=":10_0_0" index="0" disallow="pedestrian tram rail_urban rail rail_electric ship" speed="6.40" length="6.29" width="2.00" shape="65.41,4.73 65.19,4.73 64.97,4.77 64.75,4.82 64.54,4.91 64.32,5.01 64.10,5.15 63.89,5.30 63.67,5.48 63.46,5.69 63.24,5.92 63.03,6.18 62.82,6.46 62.60,6.76 62.39,7.09 62.18,7.44 61.97,7.82 61.75,8.23 61.54,8.66 61.33,9.11"/>
        <lane id=":10_0_1" index="1" disallow="pedestrian tram rail_urban rail rail_electric ship" speed="7.70" length="7.35" width="0.64" shape="65.43,3.41 65.20,3.42 64.96,3.45 64.71,3.51 64.46,3.59 64.20,3.70 63.93,3.84 63.66,4.00 63.38,4.19 63.09,4.40 62.80,4.63 62.50,4.90 62.20,5.18 61.89,5.50 61.57,5.83 61.24,6.20 60.91,6.59 60.58,7.00 60.24,7.44 59.89,7.91"/>
    </edge>
    <edge id=":10_2" function="internal">
        <lane id=":10_2_0" index="0" disallow="pedestrian tram rail_urban rail rail_electric ship" speed="8.09" length="10.44" width="3.50" shape="65.48,0.84 64.78,0.84 64.11,0.87 63.46,0.92 62.84,1.00 62.25,1.11 61.69,1.24 61.15,1.40 60.64,1.58 60.16,1.79 59.71,2.03 59.28,2.30 58.88,2.59 58.51,2.90 58.16,3.25 57.84,3.62 57.55,4.01 57.29,4.44 57.05,4.89 56.84,5.36"/>
    </edge>
    <edge id=":10_3" function="internal">
        <lane id=":10_3_0" index="0" disallow="pedestrian tram rail_urban rail rail_electric ship" speed="17.88" length="10.43" width="3.50" shape="65.48,0.84 64.71,0.84 64.00,0.84 63.36,0.87 62.77,0.89 62.23,0.93 61.72,0.96 61.25,0.99 60.80,1.01 60.36,1.02 59.94,1.02 59.52,0.99 59.09,0.95 58.65,0.87 58.18,0.77 57.69,0.63 57.16,0.45 56.59,0.23 55.97,-0.04 55.29,-0.35"/>
    </edge>
    <edge id=":11_0" function="internal">
        <lane id=":11_0_0" index="0" disallow="pedestrian tram rail_urban rail rail_electric ship" speed="17.88" length="2.05" width="2.00" shape="-89.64,21.67 -87.59,21.70"/>
        <lane id=":11_0_1" index="1" disallow="pedestrian tram rail_urban rail rail_electric ship" speed="17.88" length="0.98" width="0.64" shape="-88.55,20.37 -87.57,20.38"/>
    </edge>
    <edge id=":11_2" function="internal">
        <lane id=":11_2_0" index="0" disallow="pedestrian tram rail_urban rail rail_electric ship" speed="7.79" length="5.56" width="3.50" shape="-82.34,16.29 -82.51,16.45 -82.69,16.60 -82.88,16.74 -83.09,16.88 -83.30,17.00 -83.53,17.12 -83.76,17.23 -84.01,17.32 -84.28,17.41 -84.55,17.49 -84.83,17.57 -85.13,17.63 -85.44,17.68 -85.76,17.73 -86.09,17.76 -86.44,17.79 -86.79,17.81 -87.16,17.81 -87.54,17.81"/>
    </edge>
    <edge id=":11_3" function="internal">
        <lane id=":11_3_0" index="0" disallow="pedestrian tram rail_urban rail rail_electric ship" speed="7.37" length="2.32" width="3.50" shape="-87.11,20.09 -87.54,17.81"/>
    </edge>
    <edge id=":13_0" function="internal">
        <lane id=":13_0_0" index="0" disallow="pedestrian tram rail_urban rail rail_electric ship" speed="17.88" length="2.53" width="2.00" shape="46.95,-5.04 46.26,-7.47"/>
        <lane id=":13_0_1" index="1" disallow="pedestrian tram rail_urban rail rail_electric ship" speed="17.88" length="2.68" width="0.64" shape="48.26,-5.25 47.52,-7.83"/>
        <lane id=":13_0_2" index="2" disallow="pedestrian tram rail_urban rail rail_electric ship" speed="17.88" length="2.72" width="0.50" shape="48.81,-5.37 48.07,-7.99"/>
        <lane id=":13_0_3" index="3" disallow="pedestrian tram rail_urban rail rail_electric ship" speed="17.88" length="3.01" width="3.50" shape="50.81,-5.63 49.99,-8.53"/>
    </edge>
    <edge id=":13_4" function="internal">
        <lane id=":13_4_0" index="0" disallow="pedestrian tram rail_urban rail rail_electric ship" speed="17.88" length="3.01" width="3.50" shape="50.81,-5.63 49.99,-8.53"/>
    </edge>
    <edge id=":14_0" function="internal">
        <lane id=":14_0_0" index="0" disallow="pedestrian tram rail_urban rail rail_electric ship" speed="17.88" length="0.74" width="2.00" shape="-0.85,-68.03 -0.88,-68.77"/>
        <lane id=":14_0_1" index="1" disallow="pedestrian tram rail_urban rail rail_electric ship" speed="17.88" length="0.14" width="0.64" shape="-2.17,-67.98 -2.16,-67.84"/>
    </edge>
    <edge id=":14_2" function="internal">
        <lane id=":14_2_0" index="0" disallow="pedestrian tram rail_urban rail rail_electric ship" speed="17.88" length="1.87" width="3.50" shape="-4.73,-67.89 -4.67,-66.02"/>
    </edge>
    <edge id=":14_3" function="internal">
        <lane id=":14_3_0" index="0" disallow="pedestrian tram rail_urban rail rail_electric ship" speed="17.88" length="3.00" width="3.50" shape="-4.73,-67.89 -4.63,-64.89"/>
    </edge>
    <edge id=":16_0" function="internal">
        <lane id=":16_0_0" index="0" disallow="pedestrian tram rail_urban rail rail_electric ship" speed="6.66" length="6.56" width="2.00" shape="-92.01,10.37 -91.78,10.36 -91.54,10.33 -91.30,10.27 -91.06,10.19 -90.83,10.08 -90.59,9.94 -90.36,9.79 -90.12,9.60 -89.89,9.39 -89.65,9.16 -89.42,8.90 -89.19,8.62 -88.96,8.32 -88.73,7.98 -88.50,7.63 -88.27,7.25 -88.04,6.84 -87.81,6.41 -87.58,5.95"/>
        <lane id=":16_0_1" index="1" disallow="pedestrian tram rail_urban rail rail_electric ship" speed="7.75" length="7.53" width="0.64" shape="-92.03,11.69 -91.78,11.68 -91.52,11.64 -91.25,11.58 -90.98,11.50 -90.71,11.39 -90.43,11.25 -90.14,11.08 -89.85,10.90 -89.56,10.68 -89.26,10.44 -88.96,10.18 -88.65,9.89 -88.33,9.57 -88.01,9.23 -87.69,8.86 -87.36,8.47 -87.03,8.05 -86.69,7.60 -86.34,7.13"/>
    </edge>
    <edge id=":16_2" function="internal">
        <lane id=":16_2_0" index="0" disallow="pedestrian tram rail_urban rail rail_electric ship" speed="8.11" length="10.77" width="3.50" shape="-92.06,14.26 -91.33,14.25 -90.62,14.22 -89.95,14.16 -89.30,14.08 -88.68,13.97 -88.10,13.83 -87.54,13.66 -87.01,13.47 -86.52,13.25 -86.05,13.00 -85.61,12.73 -85.21,12.43 -84.83,12.10 -84.48,11.75 -84.16,11.36 -83.88,10.95 -83.62,10.52 -83.39,10.06 -83.19,9.57"/>
    </edge>
    <edge id=":16_3" function="internal">
        <lane id=":16_3_0" index="0" disallow="pedestrian tram rail_urban rail rail_electric ship" speed="13.42" length="8.60" width="3.50" shape="-92.06,14.26 -91.43,14.25 -90.86,14.21 -90.33,14.15 -89.85,14.08 -89.40,13.99 -88.98,13.89 -88.59,13.80 -88.21,13.70 -87.85,13.62 -87.50,13.55 -87.15,13.50 -86.80,13.48 -86.43,13.49 -86.06,13.53 -85.66,13.62 -85.23,13.75 -84.77,13.94 -84.28,14.18 -83.74,14.49"/>
    </edge>
    <edge id=":17_0" function="internal">
        <lane id=":17_0_0" index="0" disallow="pedestrian tram rail_urban rail rail_electric ship" speed="7.27" length="6.71" width="2.00" shape="-16.72,-62.59 -16.40,-62.61 -16.09,-62.66 -15.79,-62.73 -15.49,-62.81 -15.19,-62.92 -14.90,-63.04 -14.62,-63.19 -14.34,-63.35 -14.06,-63.54 -13.79,-63.74 -13.53,-63.96 -13.27,-64.20 -13.01,-64.47 -12.76,-64.75 -12.52,-65.05 -12.28,-65.37 -12.04,-65.71 -11.81,-66.07 -11.59,-66.45"/>
        <lane id=":17_0_1" index="1" disallow="pedestrian tram rail_urban rail rail_electric ship" speed="7.80" length="7.74" width="0.64" shape="-16.66,-61.27 -16.31,-61.31 -15.96,-61.36 -15.62,-61.44 -15.28,-61.54 -14.94,-61.66 -14.61,-61.81 -14.28,-61.98 -13.96,-62.17 -13.65,-62.38 -13.33,-62.61 -13.03,-62.87 -12.72,-63.15 -12.43,-63.46 -12.13,-63.78 -11.84,-64.13 -11.56,-64.50 -11.28,-64.89 -11.00,-65.31 -10.73,-65.75"/>
    </edge>
    <edge id=":17_2" function="internal">
        <lane id=":17_2_0" index="0" disallow="pedestrian tram rail_urban rail rail_electric ship" speed="17.88" length="8.72" width="0.50" shape="-16.64,-60.71 -15.99,-60.74 -15.40,-60.77 -14.87,-60.80 -14.39,-60.81 -13.95,-60.83 -13.55,-60.83 -13.17,-60.83 -12.81,-60.83 -12.46,-60.82 -12.12,-60.80 -11.77,-60.79 -11.41,-60.77 -11.03,-60.75 -10.62,-60.72 -10.18,-60.70 -9.70,-60.67 -9.17,-60.65 -8.58,-60.62 -7.93,-60.59"/>
    </edge>
    <edge id=":17_3" function="internal">
        <lane id=":17_3_0" index="0" disallow="pedestrian tram rail_urban rail rail_electric ship" speed="7.70" length="10.37" width="3.50" shape="-16.56,-58.71 -15.82,-58.77 -15.12,-58.85 -14.45,-58.95 -13.82,-59.08 -13.22,-59.23 -12.66,-59.41 -12.13,-59.60 -11.63,-59.82 -11.17,-60.07 -10.74,-60.34 -10.35,-60.63 -9.99,-60.94 -9.67,-61.28 -9.38,-61.64 -9.13,-62.02 -8.90,-62.43 -8.72,-62.86 -8.57,-63.31 -8.45,-63.79"/>
    </edge>
    <edge id=":17_4" function="internal">
        <lane id=":17_4_0" index="0" disallow="pedestrian tram rail_urban rail rail_electric ship" speed="17.88" length="8.44" width="3.50" shape="-16.56,-58.71 -15.93,-58.75 -15.36,-58.78 -14.84,-58.80 -14.38,-58.82 -13.95,-58.83 -13.56,-58.83 -13.20,-58.83 -12.85,-58.83 -12.51,-58.82 -12.18,-58.80 -11.84,-58.79 -11.49,-58.77 -11.12,-58.75 -10.73,-58.73 -10.31,-58.70 -9.84,-58.68 -9.33,-58.65 -8.76,-58.63 -8.13,-58.60"/>
    </edge>
    <edge id=":18_0" function="internal">
        <lane id=":18_0_0" index="0" disallow="pedestrian tram rail_urban rail rail_electric ship" speed="17.88" length="3.86" width="3.50" shape="-8.13,-64.92 -8.27,-68.78"/>
    </edge>
    <edge id=":18_1" function="internal">
        <lane id=":18_1_0" index="0" disallow="pedestrian tram rail_urban rail rail_electric ship" speed="17.88" length="4.64" width="3.50" shape="-8.37,-64.17 -8.30,-64.51 -8.25,-64.82 -8.20,-65.09 -8.17,-65.35 -8.14,-65.58 -8.12,-65.79 -8.11,-65.99 -8.11,-66.18 -8.11,-66.37 -8.12,-66.55 -8.13,-66.74 -8.14,-66.93 -8.16,-67.13 -8.18,-67.35 -8.20,-67.58 -8.22,-67.84 -8.24,-68.12 -8.25,-68.43 -8.27,-68.78"/>
    </edge>
    <edge id=":18_2" function="internal">
        <lane id=":18_2_0" index="0" disallow="pedestrian tram rail_urban rail rail_electric ship" speed="6.75" length="2.27" width="2.00" shape="-11.49,-66.63 -11.42,-66.76 -11.38,-66.89 -11.36,-67.00 -11.35,-67.11 -11.37,-67.20 -11.41,-67.29 -11.45,-67.38 -11.51,-67.46 -11.57,-67.54 -11.65,-67.62 -11.72,-67.70 -11.80,-67.79 -11.87,-67.88 -11.94,-67.98 -12.00,-68.09 -12.06,-68.21 -12.10,-68.34 -12.13,-68.48 -12.15,-68.64"/>
        <lane id=":18_2_1" index="1" disallow="pedestrian tram rail_urban rail rail_electric ship" speed="7.20" length="2.89" width="0.64" shape="-10.63,-65.92 -10.53,-66.10 -10.46,-66.26 -10.40,-66.42 -10.37,-66.56 -10.35,-66.69 -10.35,-66.82 -10.37,-66.94 -10.39,-67.05 -10.43,-67.17 -10.47,-67.29 -10.52,-67.41 -10.57,-67.53 -10.62,-67.66 -10.67,-67.80 -10.72,-67.95 -10.76,-68.11 -10.79,-68.28 -10.82,-68.48 -10.83,-68.68"/>
    </edge>
    <edge id=":19_0" function="internal">
        <lane id=":19_0_0" index="0" disallow="pedestrian tram rail_urban rail rail_electric ship" speed="17.88" length="3.30" width="2.00" shape="-75.30,5.92 -75.48,9.22"/>
        <lane id=":19_0_1" index="1" disallow="pedestrian tram rail_urban rail rail_electric ship" speed="17.88" length="3.43" width="0.64" shape="-76.62,5.85 -76.80,9.28"/>
        <lane id=":19_0_2" index="2" disallow="pedestrian tram rail_urban rail rail_electric ship" speed="17.88" length="3.57" width="0.50" shape="-77.18,5.82 -77.37,9.38"/>
        <lane id=":19_0_3" index="3" disallow="pedestrian tram rail_urban rail rail_electric ship" speed="17.88" length="3.70" width="3.50" shape="-79.18,5.72 -79.37,9.42"/>
    </edge>
    <edge id=":19_4" function="internal">
        <lane id=":19_4_0" index="0" disallow="pedestrian tram rail_urban rail rail_electric ship" speed="17.88" length="3.70" width="3.50" shape="-79.18,5.72 -79.37,9.42"/>
    </edge>
    <edge id=":2_0" function="internal">
        <lane id=":2_0_0" index="0" disallow="pedestrian tram rail_urban rail rail_electric ship" speed="17.88" length="9.78" width="2.00" shape="-7.08,-51.20 -7.81,-51.23 -8.47,-51.26 -9.06,-51.29 -9.61,-51.32 -10.10,-51.35 -10.55,-51.37 -10.98,-51.39 -11.38,-51.41 -11.77,-51.43 -12.16,-51.44 -12.55,-51.44 -12.96,-51.45 -13.38,-51.44 -13.83,-51.44 -14.33,-51.42 -14.87,-51.40 -15.46,-51.37 -16.12,-51.34 -16.85,-51.29"/>
        <lane id=":2_0_1" index="1" disallow="pedestrian tram rail_urban rail rail_electric ship" speed="17.88" length="9.94" width="0.64" shape="-6.96,-52.49 -7.70,-52.53 -8.37,-52.56 -8.98,-52.60 -9.53,-52.63 -10.03,-52.66 -10.49,-52.68 -10.92,-52.71 -11.33,-52.73 -11.73,-52.74 -12.12,-52.76 -12.52,-52.76 -12.93,-52.77 -13.36,-52.76 -13.82,-52.75 -14.33,-52.74 -14.87,-52.72 -15.48,-52.69 -16.15,-52.65 -16.89,-52.61"/>
        <lane id=":2_0_2" index="2" disallow="pedestrian tram rail_urban rail rail_electric ship" speed="17.88" length="10.01" width="0.50" shape="-6.91,-53.06 -7.65,-53.09 -8.33,-53.13 -8.94,-53.16 -9.49,-53.19 -10.00,-53.22 -10.46,-53.25 -10.90,-53.27 -11.31,-53.29 -11.71,-53.31 -12.11,-53.32 -12.51,-53.33 -12.92,-53.33 -13.35,-53.33 -13.82,-53.32 -14.32,-53.31 -14.88,-53.29 -15.49,-53.26 -16.16,-53.22 -16.91,-53.18"/>
        <lane id=":2_0_3" index="3" disallow="pedestrian tram rail_urban rail rail_electric ship" speed="17.88" length="10.26" width="3.50" shape="-6.72,-55.03 -7.49,-55.07 -8.18,-55.11 -8.81,-55.15 -9.37,-55.18 -9.89,-55.21 -10.37,-55.24 -10.81,-55.27 -11.23,-55.29 -11.64,-55.30 -12.05,-55.31 -12.46,-55.32 -12.88,-55.32 -13.33,-55.32 -13.80,-55.31 -14.32,-55.30 -14.89,-55.28 -15.51,-55.25 -16.20,-55.22 -16.97,-55.18"/>
    </edge>
    <edge id=":2_4" function="internal">
        <lane id=":2_4_0" index="0" disallow="pedestrian tram rail_urban rail rail_electric ship" speed="9.46" length="13.57" width="3.50" shape="-5.06,-60.17 -5.27,-59.71 -5.52,-59.28 -5.82,-58.86 -6.17,-58.47 -6.56,-58.10 -7.00,-57.75 -7.49,-57.42 -8.02,-57.12 -8.60,-56.83 -9.23,-56.57 -9.90,-56.33 -10.62,-56.11 -11.39,-55.91 -12.20,-55.74 -13.06,-55.58 -13.97,-55.45 -14.92,-55.34 -15.92,-55.25 -16.97,-55.18"/>
    </edge>
    <edge id=":20_0" function="internal">
        <lane id=":20_0_0" index="0" disallow="pedestrian tram rail_urban rail rail_electric ship" speed="17.88" length="3.02" width="0.50" shape="-84.85,8.80 -84.70,5.78"/>
        <lane id=":20_0_1" index="1" disallow="pedestrian tram rail_urban rail rail_electric ship" speed="17.88" length="3.02" width="3.50" shape="-82.85,8.90 -82.70,5.88"/>
    </edge>
    <edge id=":20_2" function="internal">
        <lane id=":20_2_0" index="0" disallow="pedestrian tram rail_urban rail rail_electric ship" speed="17.88" length="3.01" width="3.50" shape="-82.99,8.87 -82.94,8.65 -82.90,8.46 -82.86,8.28 -82.83,8.11 -82.81,7.96 -82.79,7.82 -82.78,7.69 -82.77,7.57 -82.76,7.45 -82.76,7.33 -82.76,7.21 -82.75,7.08 -82.75,6.95 -82.75,6.81 -82.74,6.66 -82.74,6.49 -82.73,6.31 -82.72,6.10 -82.70,5.88"/>
    </edge>
    <edge id=":20_3" function="internal">
        <lane id=":20_3_0" index="0" disallow="pedestrian tram rail_urban rail rail_electric ship" speed="17.88" length="0.91" width="2.00" shape="-87.49,5.77 -86.58,5.68"/>
        <lane id=":20_3_1" index="1" disallow="pedestrian tram rail_urban rail rail_electric ship" speed="5.55" length="1.55" width="0.64" shape="-86.23,6.97 -85.27,5.75"/>
    </edge>
    <edge id=":21_0" function="internal">
        <lane id=":21_0_0" index="0" disallow="pedestrian tram rail_urban rail rail_electric ship" speed="17.88" length="17.04" width="2.00" shape="-75.48,9.42 -75.50,10.69 -75.52,11.83 -75.53,12.87 -75.54,13.81 -75.53,14.68 -75.52,15.47 -75.49,16.21 -75.45,16.92 -75.39,17.60 -75.32,18.27 -75.22,18.95 -75.11,19.64 -74.97,20.37 -74.81,21.15 -74.62,21.99 -74.40,22.90 -74.15,23.91 -73.87,25.02 -73.56,26.26"/>
        <lane id=":21_0_1" index="1" disallow="pedestrian tram rail_urban rail rail_electric ship" speed="17.88" length="17.17" width="0.64" shape="-76.80,9.54 -76.82,10.82 -76.84,11.97 -76.85,13.02 -76.86,13.97 -76.85,14.83 -76.84,15.64 -76.81,16.38 -76.77,17.09 -76.71,17.78 -76.63,18.45 -76.54,19.14 -76.42,19.84 -76.28,20.57 -76.11,21.35 -75.92,22.20 -75.70,23.12 -75.45,24.14 -75.17,25.26 -74.86,26.50"/>
        <lane id=":21_0_2" index="2" disallow="pedestrian tram rail_urban rail rail_electric ship" speed="17.88" length="17.31" width="0.50" shape="-77.37,9.51 -77.39,10.80 -77.41,11.97 -77.42,13.02 -77.43,13.98 -77.42,14.85 -77.41,15.66 -77.38,16.41 -77.34,17.13 -77.28,17.82 -77.20,18.50 -77.11,19.18 -76.99,19.89 -76.85,20.63 -76.68,21.42 -76.49,22.27 -76.27,23.20 -76.02,24.23 -75.73,25.36 -75.42,26.61"/>
        <lane id=":21_0_3" index="3" disallow="pedestrian tram rail_urban rail rail_electric ship" speed="17.88" length="17.44" width="3.50" shape="-79.37,9.75 -79.39,11.05 -79.41,12.22 -79.42,13.29 -79.43,14.25 -79.42,15.13 -79.40,15.94 -79.37,16.70 -79.33,17.42 -79.27,18.12 -79.19,18.81 -79.09,19.50 -78.97,20.21 -78.83,20.96 -78.66,21.75 -78.47,22.61 -78.25,23.55 -77.99,24.58 -77.71,25.72 -77.39,26.98"/>
    </edge>
    <edge id=":21_4" function="internal">
        <lane id=":21_4_0" index="0" disallow="pedestrian tram rail_urban rail rail_electric ship" speed="12.54" length="14.32" width="3.50" shape="-83.57,14.59 -82.93,15.01 -82.35,15.43 -81.83,15.87 -81.36,16.32 -80.94,16.80 -80.56,17.29 -80.22,17.81 -79.92,18.36 -79.64,18.94 -79.39,19.55 -79.16,20.20 -78.94,20.88 -78.73,21.61 -78.52,22.38 -78.31,23.20 -78.10,24.06 -77.88,24.98 -77.64,25.95 -77.39,26.98"/>
    </edge>
    <edge id=":22_0" function="internal">
        <lane id=":22_0_0" index="0" disallow="pedestrian tram rail_urban rail rail_electric ship" speed="17.88" length="17.67" width="2.00" shape="48.99,12.59 49.03,11.27 49.06,10.08 49.08,9.01 49.09,8.03 49.10,7.14 49.09,6.32 49.07,5.55 49.03,4.81 48.97,4.11 48.89,3.41 48.79,2.71 48.67,1.99 48.52,1.23 48.35,0.43 48.15,-0.44 47.91,-1.39 47.64,-2.43 47.34,-3.58 47.00,-4.85"/>
        <lane id=":22_0_1" index="1" disallow="pedestrian tram rail_urban rail rail_electric ship" speed="17.88" length="17.82" width="0.64" shape="50.31,12.54 50.35,11.22 50.38,10.02 50.40,8.93 50.42,7.95 50.42,7.04 50.41,6.21 50.39,5.44 50.35,4.70 50.29,3.99 50.21,3.28 50.12,2.58 49.99,1.85 49.84,1.09 49.67,0.27 49.46,-0.60 49.23,-1.56 48.96,-2.61 48.65,-3.77 48.31,-5.05"/>
        <lane id=":22_0_2" index="2" disallow="pedestrian tram rail_urban rail rail_electric ship" speed="17.88" length="17.85" width="0.50" shape="50.88,12.52 50.92,11.19 50.95,9.99 50.97,8.91 50.98,7.92 50.99,7.02 50.98,6.18 50.96,5.40 50.92,4.67 50.86,3.95 50.79,3.25 50.69,2.54 50.57,1.81 50.42,1.05 50.24,0.23 50.04,-0.64 49.80,-1.60 49.53,-2.65 49.23,-3.81 48.89,-5.10"/>
        <lane id=":22_0_3" index="3" disallow="pedestrian tram rail_urban rail rail_electric ship" speed="17.88" length="18.14" width="3.50" shape="52.88,12.45 52.92,11.10 52.95,9.88 52.97,8.78 52.98,7.78 52.98,6.86 52.97,6.01 52.94,5.22 52.90,4.47 52.84,3.75 52.76,3.04 52.66,2.32 52.53,1.58 52.38,0.80 52.21,-0.03 52.00,-0.92 51.76,-1.89 51.50,-2.96 51.19,-4.15 50.86,-5.46"/>
    </edge>
    <edge id=":22_4" function="internal">
        <lane id=":22_4_0" index="0" disallow="pedestrian tram rail_urban rail rail_electric ship" speed="9.47" length="17.52" width="3.50" shape="52.88,12.45 52.94,10.99 53.02,9.60 53.14,8.28 53.28,7.04 53.46,5.88 53.66,4.78 53.90,3.76 54.16,2.82 54.46,1.95 54.78,1.15 55.14,0.43 55.52,-0.22 55.94,-0.79 56.38,-1.29 56.86,-1.71 57.36,-2.06 57.90,-2.34 58.46,-2.54 59.06,-2.67"/>
    </edge>
    <edge id=":3_0" function="internal">
        <lane id=":3_0_0" index="0" disallow="pedestrian tram rail_urban rail rail_electric ship" speed="17.88" length="3.59" width="2.00" shape="66.37,-6.53 62.78,-6.60"/>
        <lane id=":3_0_1" index="1" disallow="pedestrian tram rail_urban rail rail_electric ship" speed="17.88" length="2.77" width="0.64" shape="65.53,-5.23 62.76,-5.28"/>
    </edge>
    <edge id=":3_2" function="internal">
        <lane id=":3_2_0" index="0" disallow="pedestrian tram rail_urban rail rail_electric ship" speed="17.88" length="3.00" width="3.50" shape="59.71,-2.74 62.71,-2.71"/>
    </edge>
    <edge id=":3_3" function="internal">
        <lane id=":3_3_0" index="0" disallow="pedestrian tram rail_urban rail rail_electric ship" speed="17.88" length="1.09" width="3.50" shape="63.80,-2.69 62.71,-2.71"/>
    </edge>
    <edge id=":5_0" function="internal">
        <lane id=":5_0_0" index="0" disallow="pedestrian tram rail_urban rail rail_electric ship" speed="5.91" length="1.05" width="2.00" shape="61.25,9.29 60.28,9.70"/>
        <lane id=":5_0_1" index="1" disallow="pedestrian tram rail_urban rail rail_electric ship" speed="5.25" length="1.87" width="0.64" shape="59.77,8.07 58.96,9.75"/>
    </edge>
    <edge id=":5_2" function="internal">
        <lane id=":5_2_0" index="0" disallow="pedestrian tram rail_urban rail rail_electric ship" speed="17.88" length="3.03" width="0.50" shape="58.28,6.74 58.39,9.77"/>
        <lane id=":5_2_1" index="1" disallow="pedestrian tram rail_urban rail rail_electric ship" speed="17.88" length="3.02" width="3.50" shape="56.28,6.82 56.39,9.84"/>
    </edge>
    <edge id=":5_4" function="internal">
        <lane id=":5_4_0" index="0" disallow="pedestrian tram rail_urban rail rail_electric ship" speed="17.88" length="3.01" width="3.50" shape="56.44,6.84 56.41,7.06 56.38,7.26 56.36,7.44 56.34,7.61 56.33,7.76 56.33,7.90 56.32,8.03 56.32,8.15 56.32,8.27 56.33,8.39 56.34,8.51 56.34,8.64 56.35,8.77 56.36,8.91 56.37,9.06 56.38,9.23 56.38,9.41 56.39,9.61 56.39,9.84"/>
    </edge>
    <edge id=":6_0" function="internal">
        <lane id=":6_0_0" index="0" disallow="pedestrian tram rail_urban rail rail_electric ship" speed="6.94" length="8.71" width="2.00" shape="-84.67,28.28 -84.85,27.60 -85.03,26.97 -85.22,26.37 -85.42,25.80 -85.63,25.27 -85.85,24.78 -86.07,24.33 -86.31,23.91 -86.55,23.52 -86.80,23.18 -87.06,22.86 -87.32,22.59 -87.60,22.35 -87.89,22.15 -88.18,21.98 -88.48,21.85 -88.79,21.76 -89.11,21.70 -89.44,21.68"/>