<?xml version="1.0" encoding="UTF-8"?>

<!-- generated on 2023-06-29 17:19:50.251309 by randomTrips.py UNKNOWN
<configuration>
    <net-file value="/home/tianzheng/Documents/Github/commonroad-scenario-designer/output/CircleJunction/84222612-b52a-45d6-873c-60d0f4ba8ea0.net.xml"/>
    <additional-files value="/home/tianzheng/Documents/Github/commonroad-scenario-designer/output/CircleJunction/84222612-b52a-45d6-873c-60d0f4ba8ea0.add.xml"/>
    <output-trip-file value="/home/tianzheng/Documents/Github/commonroad-scenario-designer/output/CircleJunction/84222612-b52a-45d6-873c-60d0f4ba8ea0.vehicles.trips.xml"/>
    <route-file value="/home/tianzheng/Documents/Github/commonroad-scenario-designer/output/CircleJunction/84222612-b52a-45d6-873c-60d0f4ba8ea0.vehicles.rou.xml"/>
    <trip-attributes value="departLane=&quot;best&quot; departSpeed=&quot;max&quot; departPos=&quot;random_free&quot;"/>
    <end value="30.0"/>
    <seed value="1234"/>
    <fringe-factor value="2147483646"/>
    <validate value="True"/>
    <period value="0.06593848598642331"/>
</configuration>
-->

<!-- generated on 2023-06-29 17:19:50 by Eclipse SUMO duarouter Version 1.17.0
<configuration xmlns:xsi="http://www.w3.org/2001/XMLSchema-instance" xsi:noNamespaceSchemaLocation="http://sumo.dlr.de/xsd/duarouterConfiguration.xsd">

    <input>
        <net-file value="/home/tianzheng/Documents/Github/commonroad-scenario-designer/output/CircleJunction/84222612-b52a-45d6-873c-60d0f4ba8ea0.net.xml"/>
        <additional-files value="/home/tianzheng/Documents/Github/commonroad-scenario-designer/output/CircleJunction/84222612-b52a-45d6-873c-60d0f4ba8ea0.add.xml"/>
        <route-files value="/home/tianzheng/Documents/Github/commonroad-scenario-designer/output/CircleJunction/84222612-b52a-45d6-873c-60d0f4ba8ea0.vehicles.trips.xml"/>
    </input>

    <output>
        <output-file value="/home/tianzheng/Documents/Github/commonroad-scenario-designer/output/CircleJunction/84222612-b52a-45d6-873c-60d0f4ba8ea0.vehicles.trips.xml.tmp"/>
        <alternatives-output value="NUL"/>
        <write-trips value="true"/>
    </output>

    <time>
        <begin value="0.0"/>
        <end value="30.0"/>
    </time>

    <report>
        <no-warnings value="true"/>
        <ignore-errors value="true"/>
        <no-step-log value="true"/>
    </report>

</configuration>
-->

<routes xmlns:xsi="http://www.w3.org/2001/XMLSchema-instance" xsi:noNamespaceSchemaLocation="http://sumo.dlr.de/xsd/routes_file.xsd">
    <vType id="truck" length="7.50" minGap="2.50" maxSpeed="36.11" probability="0.80" speedFactor="normc(0.93,0.19,0.20,2.00)" vClass="truck" impatience="0.18" guiShape="truck" width="2.60" lcStrategic="14.87" lcCooperative="1.24" lcSpeedGain="18.92" lcKeepRight="0.87" lcImpatience="0.10" lcMaxSpeedLatStanding="0.00" lcSigma="0.18" accel="1.40" decel="3.69" sigma="0.59"/>
    <trip id="0" depart="0.00" departLane="best" departPos="random_free" departSpeed="max" from="90" to="31"/>
    <vType id="passenger" length="5.00" minGap="2.50" maxSpeed="50.00" probability="4.00" speedFactor="normc(1.01,0.14,0.20,2.00)" vClass="passenger" impatience="0.49" guiShape="passenger" width="2.00" lcStrategic="27.12" lcCooperative="1.44" lcSpeedGain="7.59" lcKeepRight="0.88" lcImpatience="0.42" lcMaxSpeedLatStanding="0.00" lcSigma="0.19" accel="2.61" decel="4.04" sigma="0.53"/>
    <trip id="1" depart="0.07" departLane="best" departPos="random_free" departSpeed="max" from="24" to="87"/>
    <trip id="2" depart="0.13" departLane="best" departPos="random_free" departSpeed="max" from="90" to="31"/>
    <trip id="3" depart="0.20" departLane="best" departPos="random_free" departSpeed="max" from="90" to="15"/>
    <trip id="4" depart="0.26" departLane="best" departPos="random_free" departSpeed="max" from="90" to="15"/>
    <trip id="5" depart="0.33" departLane="best" departPos="random_free" departSpeed="max" from="24" to="87"/>
    <trip id="6" depart="0.40" departLane="best" departPos="random_free" departSpeed="max" from="8" to="31"/>
    <trip id="7" depart="0.46" departLane="best" departPos="random_free" departSpeed="max" from="8" to="15"/>
    <trip id="8" depart="0.53" departLane="best" departPos="random_free" departSpeed="max" from="24" to="15"/>
    <trip id="9" depart="0.59" departLane="best" departPos="random_free" departSpeed="max" from="24" to="31"/>
    <trip id="10" depart="0.66" departLane="best" departPos="random_free" departSpeed="max" from="90" to="15"/>
    <trip id="11" depart="0.73" departLane="best" departPos="random_free" departSpeed="max" from="8" to="31"/>
    <trip id="12" depart="0.79" departLane="best" departPos="random_free" departSpeed="max" from="8" to="15"/>
    <trip id="13" depart="0.86" departLane="best" departPos="random_free" departSpeed="max" from="8" to="15"/>
    <trip id="14" depart="0.92" departLane="best" departPos="random_free" departSpeed="max" from="8" to="31"/>
    <trip id="15" depart="0.99" departLane="best" departPos="random_free" departSpeed="max" from="8" to="31"/>
    <trip id="16" depart="1.06" departLane="best" departPos="random_free" departSpeed="max" from="24" to="87"/>
    <trip id="17" depart="1.12" departLane="best" departPos="random_free" departSpeed="max" from="8" to="31"/>
    <trip id="18" depart="1.19" departLane="best" departPos="random_free" departSpeed="max" from="24" to="31"/>
    <trip id="19" depart="1.25" departLane="best" departPos="random_free" departSpeed="max" from="24" to="15"/>
    <trip id="20" depart="1.32" departLane="best" departPos="random_free" departSpeed="max" from="8" to="31"/>
    <trip id="21" depart="1.38" departLane="best" departPos="random_free" departSpeed="max" from="24" to="31"/>
    <trip id="22" depart="1.45" departLane="best" departPos="random_free" departSpeed="max" from="24" to="31"/>
    <trip id="23" depart="1.52" departLane="best" departPos="random_free" departSpeed="max" from="24" to="87"/>
    <vType id="bus" length="12.40" minGap="2.50" maxSpeed="23.61" probability="0.30" speedFactor="normc(1.06,0.18,0.20,2.00)" vClass="bus" impatience="0.18" guiShape="bus" width="2.70" lcStrategic="62.63" lcCooperative="1.48" lcSpeedGain="12.75" lcKeepRight="0.85" lcImpatience="0.27" lcMaxSpeedLatStanding="0.00" lcSigma="0.19" accel="1.17" decel="4.24" sigma="0.58"/>
    <trip id="24" depart="1.58" departLane="best" departPos="random_free" departSpeed="max" from="90" to="87"/>
    <trip id="25" depart="1.65" departLane="best" departPos="random_free" departSpeed="max" from="24" to="15"/>
    <trip id="26" depart="1.71" departLane="best" departPos="random_free" departSpeed="max" from="24" to="15"/>
    <trip id="27" depart="1.78" departLane="best" departPos="random_free" departSpeed="max" from="90" to="15"/>
    <trip id="28" depart="1.85" departLane="best" departPos="random_free" departSpeed="max" from="24" to="87"/>
    <trip id="29" depart="1.91" departLane="best" departPos="random_free" departSpeed="max" from="24" to="87"/>
    <trip id="30" depart="1.98" departLane="best" departPos="random_free" departSpeed="max" from="24" to="31"/>
    <trip id="31" depart="2.04" departLane="best" departPos="random_free" departSpeed="max" from="8" to="31"/>
    <trip id="32" depart="2.11" departLane="best" departPos="random_free" departSpeed="max" from="90" to="31"/>
    <trip id="33" depart="2.18" departLane="best" departPos="random_free" departSpeed="max" from="90" to="31"/>
    <trip id="34" depart="2.24" departLane="best" departPos="random_free" departSpeed="max" from="90" to="87"/>
    <trip id="35" depart="2.31" departLane="best" departPos="random_free" departSpeed="max" from="8" to="87"/>
    <trip id="36" depart="2.37" departLane="best" departPos="random_free" departSpeed="max" from="90" to="15"/>
    <trip id="37" depart="2.44" departLane="best" departPos="random_free" departSpeed="max" from="24" to="15"/>
    <trip id="38" depart="2.51" departLane="best" departPos="random_free" departSpeed="max" from="8" to="15"/>
    <trip id="39" depart="2.57" departLane="best" departPos="random_free" departSpeed="max" from="8" to="87"/>
    <trip id="40" depart="2.64" departLane="best" departPos="random_free" departSpeed="max" from="8" to="87"/>
    <vType id="bicycle" length="2.00" minGap="1.00" maxSpeed="6.94" probability="0.20" speedFactor="normc(0.99,0.16,0.20,2.00)" vClass="bicycle" impatience="0.39" guiShape="bicycle" width="0.68" lcStrategic="63.77" lcCooperative="2.36" lcSpeedGain="17.43" lcKeepRight="0.87" lcImpatience="0.44" lcMaxSpeedLatStanding="0.00" lcSigma="0.16" accel="1.03" decel="3.35" sigma="0.64"/>
    <trip id="41" depart="2.70" departLane="best" departPos="random_free" departSpeed="max" from="8" to="31"/>
    <trip id="42" depart="2.77" departLane="best" departPos="random_free" departSpeed="max" from="8" to="87"/>
    <trip id="43" depart="2.84" departLane="best" departPos="random_free" departSpeed="max" from="90" to="15"/>
    <trip id="44" depart="2.90" departLane="best" departPos="random_free" departSpeed="max" from="90" to="15"/>
    <trip id="45" depart="2.97" departLane="best" departPos="random_free" departSpeed="max" from="24" to="87"/>
    <trip id="46" depart="3.03" departLane="best" departPos="random_free" departSpeed="max" from="90" to="87"/>
    <trip id="47" depart="3.10" departLane="best" departPos="random_free" departSpeed="max" from="8" to="15"/>
    <trip id="48" depart="3.17" departLane="best" departPos="random_free" departSpeed="max" from="8" to="15"/>
    <trip id="49" depart="3.23" departLane="best" departPos="random_free" departSpeed="max" from="24" to="15"/>
    <trip id="50" depart="3.30" departLane="best" departPos="random_free" departSpeed="max" from="8" to="15"/>
    <trip id="51" depart="3.36" departLane="best" departPos="random_free" departSpeed="max" from="90" to="87"/>
    <trip id="52" depart="3.43" departLane="best" departPos="random_free" departSpeed="max" from="24" to="87"/>
    <trip id="53" depart="3.49" departLane="best" departPos="random_free" departSpeed="max" from="24" to="15"/>
    <trip id="54" depart="3.56" departLane="best" departPos="random_free" departSpeed="max" from="24" to="31"/>
    <trip id="55" depart="3.63" departLane="best" departPos="random_free" departSpeed="max" from="24" to="31"/>
    <trip id="56" depart="3.69" departLane="best" departPos="random_free" departSpeed="max" from="90" to="87"/>
    <trip id="57" depart="3.76" departLane="best" departPos="random_free" departSpeed="max" from="8" to="87"/>
    <trip id="58" depart="3.82" departLane="best" departPos="random_free" departSpeed="max" from="8" to="87"/>
    <trip id="59" depart="3.89" departLane="best" departPos="random_free" departSpeed="max" from="8" to="87"/>
    <trip id="60" depart="3.96" departLane="best" departPos="random_free" departSpeed="max" from="24" to="31"/>
    <trip id="61" depart="4.02" departLane="best" departPos="random_free" departSpeed="max" from="24" to="87"/>
    <trip id="62" depart="4.09" departLane="best" departPos="random_free" departSpeed="max" from="8" to="31"/>
    <trip id="63" depart="4.15" departLane="best" departPos="random_free" departSpeed="max" from="90" to="31"/>
    <trip id="64" depart="4.22" departLane="best" departPos="random_free" departSpeed="max" from="8" to="15"/>
    <trip id="65" depart="4.29" departLane="best" departPos="random_free" departSpeed="max" from="8" to="87"/>
    <trip id="66" depart="4.35" departLane="best" departPos="random_free" departSpeed="max" from="90" to="15"/>
    <trip id="67" depart="4.42" departLane="best" departPos="random_free" departSpeed="max" from="24" to="15"/>
    <trip id="68" depart="4.48" departLane="best" departPos="random_free" departSpeed="max" from="90" to="31"/>
    <trip id="69" depart="4.55" departLane="best" departPos="random_free" departSpeed="max" from="90" to="15"/>
    <trip id="70" depart="4.62" departLane="best" departPos="random_free" departSpeed="max" from="24" to="31"/>
    <trip id="71" depart="4.68" departLane="best" departPos="random_free" departSpeed="max" from="90" to="15"/>
    <trip id="72" depart="4.75" departLane="best" departPos="random_free" departSpeed="max" from="90" to="31"/>
    <trip id="73" depart="4.81" departLane="best" departPos="random_free" departSpeed="max" from="90" to="87"/>
    <trip id="74" depart="4.88" departLane="best" departPos="random_free" departSpeed="max" from="8" to="87"/>
    <trip id="75" depart="4.95" departLane="best" departPos="random_free" departSpeed="max" from="8" to="87"/>
    <trip id="76" depart="5.01" departLane="best" departPos="random_free" departSpeed="max" from="90" to="87"/>
    <trip id="77" depart="5.08" departLane="best" departPos="random_free" departSpeed="max" from="24" to="15"/>
    <trip id="78" depart="5.14" departLane="best" departPos="random_free" departSpeed="max" from="8" to="87"/>
    <trip id="79" depart="5.21" departLane="best" departPos="random_free" departSpeed="max" from="24" to="15"/>
    <trip id="80" depart="5.28" departLane="best" departPos="random_free" departSpeed="max" from="8" to="15"/>
    <trip id="81" depart="5.34" departLane="best" departPos="random_free" departSpeed="max" from="90" to="31"/>
    <trip id="82" depart="5.41" departLane="best" departPos="random_free" departSpeed="max" from="24" to="87"/>
    <trip id="83" depart="5.47" departLane="best" departPos="random_free" departSpeed="max" from="8" to="87"/>
    <trip id="84" depart="5.54" departLane="best" departPos="random_free" departSpeed="max" from="24" to="15"/>
    <trip id="85" depart="5.60" departLane="best" departPos="random_free" departSpeed="max" from="24" to="31"/>
    <trip id="86" depart="5.67" departLane="best" departPos="random_free" departSpeed="max" from="8" to="87"/>
    <trip id="87" depart="5.74" departLane="best" departPos="random_free" departSpeed="max" from="8" to="31"/>
    <trip id="88" depart="5.80" departLane="best" departPos="random_free" departSpeed="max" from="8" to="15"/>
    <trip id="89" depart="5.87" departLane="best" departPos="random_free" departSpeed="max" from="8" to="31"/>
    <trip id="90" depart="5.93" departLane="best" departPos="random_free" departSpeed="max" from="24" to="31"/>
    <trip id="91" depart="6.00" departLane="best" departPos="random_free" departSpeed="max" from="90" to="31"/>
    <trip id="92" depart="6.07" departLane="best" departPos="random_free" departSpeed="max" from="90" to="31"/>
    <trip id="93" depart="6.13" departLane="best" departPos="random_free" departSpeed="max" from="90" to="87"/>
    <trip id="94" depart="6.20" departLane="best" departPos="random_free" departSpeed="max" from="8" to="15"/>
    <trip id="95" depart="6.26" departLane="best" departPos="random_free" departSpeed="max" from="8" to="87"/>
    <trip id="96" depart="6.33" departLane="best" departPos="random_free" departSpeed="max" from="24" to="15"/>
    <trip id="97" depart="6.40" departLane="best" departPos="random_free" departSpeed="max" from="90" to="31"/>
    <trip id="98" depart="6.46" departLane="best" departPos="random_free" departSpeed="max" from="90" to="87"/>
    <trip id="99" depart="6.53" departLane="best" departPos="random_free" departSpeed="max" from="90" to="15"/>
    <trip id="100" depart="6.59" departLane="best" departPos="random_free" departSpeed="max" from="90" to="15"/>
    <trip id="101" depart="6.66" departLane="best" departPos="random_free" departSpeed="max" from="90" to="15"/>
    <trip id="102" depart="6.73" departLane="best" departPos="random_free" departSpeed="max" from="24" to="87"/>
    <trip id="103" depart="6.79" departLane="best" departPos="random_free" departSpeed="max" from="24" to="31"/>
    <trip id="104" depart="6.86" departLane="best" departPos="random_free" departSpeed="max" from="8" to="31"/>
    <trip id="105" depart="6.92" departLane="best" departPos="random_free" departSpeed="max" from="8" to="15"/>
    <trip id="106" depart="6.99" departLane="best" departPos="random_free" departSpeed="max" from="24" to="87"/>
    <trip id="107" depart="7.06" departLane="best" departPos="random_free" departSpeed="max" from="8" to="31"/>
    <trip id="108" depart="7.12" departLane="best" departPos="random_free" departSpeed="max" from="90" to="15"/>
    <trip id="109" depart="7.19" departLane="best" departPos="random_free" departSpeed="max" from="24" to="15"/>
    <trip id="110" depart="7.25" departLane="best" departPos="random_free" departSpeed="max" from="24" to="87"/>
    <trip id="111" depart="7.32" departLane="best" departPos="random_free" departSpeed="max" from="90" to="31"/>
    <trip id="112" depart="7.39" departLane="best" departPos="random_free" departSpeed="max" from="90" to="31"/>
    <trip id="113" depart="7.45" departLane="best" departPos="random_free" departSpeed="max" from="8" to="31"/>
    <trip id="114" depart="7.52" departLane="best" departPos="random_free" departSpeed="max" from="24" to="87"/>
    <trip id="115" depart="7.58" departLane="best" departPos="random_free" departSpeed="max" from="24" to="87"/>
    <trip id="116" depart="7.65" departLane="best" departPos="random_free" departSpeed="max" from="90" to="15"/>
    <trip id="117" depart="7.71" departLane="best" departPos="random_free" departSpeed="max" from="8" to="31"/>
    <trip id="118" depart="7.78" departLane="best" departPos="random_free" departSpeed="max" from="90" to="87"/>
    <trip id="119" depart="7.85" departLane="best" departPos="random_free" departSpeed="max" from="24" to="31"/>
    <trip id="120" depart="7.91" departLane="best" departPos="random_free" departSpeed="max" from="24" to="31"/>
    <trip id="121" depart="7.98" departLane="best" departPos="random_free" departSpeed="max" from="90" to="87"/>
    <trip id="122" depart="8.04" departLane="best" departPos="random_free" departSpeed="max" from="24" to="31"/>
    <trip id="123" depart="8.11" departLane="best" departPos="random_free" departSpeed="max" from="8" to="15"/>
    <trip id="124" depart="8.18" departLane="best" departPos="random_free" departSpeed="max" from="90" to="15"/>
    <trip id="125" depart="8.24" departLane="best" departPos="random_free" departSpeed="max" from="24" to="31"/>
    <trip id="126" depart="8.31" departLane="best" departPos="random_free" departSpeed="max" from="8" to="87"/>
    <trip id="127" depart="8.37" departLane="best" departPos="random_free" departSpeed="max" from="90" to="15"/>
    <trip id="128" depart="8.44" departLane="best" departPos="random_free" departSpeed="max" from="90" to="31"/>
    <trip id="129" depart="8.51" departLane="best" departPos="random_free" departSpeed="max" from="8" to="31"/>
    <trip id="130" depart="8.57" departLane="best" departPos="random_free" departSpeed="max" from="8" to="31"/>
    <trip id="131" depart="8.64" departLane="best" departPos="random_free" departSpeed="max" from="90" to="87"/>
    <trip id="132" depart="8.70" departLane="best" departPos="random_free" departSpeed="max" from="90" to="87"/>
    <trip id="133" depart="8.77" departLane="best" departPos="random_free" departSpeed="max" from="8" to="15"/>
    <trip id="134" depart="8.84" departLane="best" departPos="random_free" departSpeed="max" from="24" to="87"/>
    <trip id="135" depart="8.90" departLane="best" departPos="random_free" departSpeed="max" from="8" to="87"/>
    <trip id="136" depart="8.97" departLane="best" departPos="random_free" departSpeed="max" from="90" to="31"/>
    <trip id="137" depart="9.03" departLane="best" departPos="random_free" departSpeed="max" from="8" to="15"/>
    <trip id="138" depart="9.10" departLane="best" departPos="random_free" departSpeed="max" from="8" to="15"/>
    <trip id="139" depart="9.17" departLane="best" departPos="random_free" departSpeed="max" from="24" to="87"/>
    <trip id="140" depart="9.23" departLane="best" departPos="random_free" departSpeed="max" from="24" to="87"/>
    <trip id="141" depart="9.30" departLane="best" departPos="random_free" departSpeed="max" from="8" to="87"/>
    <trip id="142" depart="9.36" departLane="best" departPos="random_free" departSpeed="max" from="90" to="87"/>
    <trip id="143" depart="9.43" departLane="best" departPos="random_free" departSpeed="max" from="8" to="31"/>
    <trip id="144" depart="9.50" departLane="best" departPos="random_free" departSpeed="max" from="24" to="31"/>
    <trip id="145" depart="9.56" departLane="best" departPos="random_free" departSpeed="max" from="24" to="15"/>
    <trip id="146" depart="9.63" departLane="best" departPos="random_free" departSpeed="max" from="90" to="31"/>
    <trip id="147" depart="9.69" departLane="best" departPos="random_free" departSpeed="max" from="90" to="31"/>
    <trip id="148" depart="9.76" departLane="best" departPos="random_free" departSpeed="max" from="24" to="87"/>
    <trip id="149" depart="9.82" departLane="best" departPos="random_free" departSpeed="max" from="8" to="15"/>
    <trip id="150" depart="9.89" departLane="best" departPos="random_free" departSpeed="max" from="90" to="31"/>
    <trip id="151" depart="9.96" departLane="best" departPos="random_free" departSpeed="max" from="8" to="31"/>
    <trip id="152" depart="10.02" departLane="best" departPos="random_free" departSpeed="max" from="8" to="87"/>
    <trip id="153" depart="10.09" departLane="best" departPos="random_free" departSpeed="max" from="24" to="15"/>
    <trip id="154" depart="10.15" departLane="best" departPos="random_free" departSpeed="max" from="24" to="87"/>
    <trip id="155" depart="10.22" departLane="best" departPos="random_free" departSpeed="max" from="24" to="31"/>
    <trip id="156" depart="10.29" departLane="best" departPos="random_free" departSpeed="max" from="90" to="31"/>
    <trip id="157" depart="10.35" departLane="best" departPos="random_free" departSpeed="max" from="8" to="31"/>
    <trip id="158" depart="10.42" departLane="best" departPos="random_free" departSpeed="max" from="24" to="31"/>
    <trip id="159" depart="10.48" departLane="best" departPos="random_free" departSpeed="max" from="90" to="87"/>
    <trip id="160" depart="10.55" departLane="best" departPos="random_free" departSpeed="max" from="8" to="31"/>
    <trip id="161" depart="10.62" departLane="best" departPos="random_free" departSpeed="max" from="90" to="87"/>
    <trip id="162" depart="10.68" departLane="best" departPos="random_free" departSpeed="max" from="90" to="31"/>
    <trip id="163" depart="10.75" departLane="best" departPos="random_free" departSpeed="max" from="8" to="15"/>
    <trip id="164" depart="10.81" departLane="best" departPos="random_free" departSpeed="max" from="24" to="87"/>
    <trip id="165" depart="10.88" departLane="best" departPos="random_free" departSpeed="max" from="24" to="87"/>
    <trip id="166" depart="10.95" departLane="best" departPos="random_free" departSpeed="max" from="8" to="87"/>
    <trip id="167" depart="11.01" departLane="best" departPos="random_free" departSpeed="max" from="8" to="87"/>
    <trip id="168" depart="11.08" departLane="best" departPos="random_free" departSpeed="max" from="8" to="87"/>
    <trip id="169" depart="11.14" departLane="best" departPos="random_free" departSpeed="max" from="8" to="87"/>
    <trip id="170" depart="11.21" departLane="best" departPos="random_free" departSpeed="max" from="90" to="31"/>
    <trip id="171" depart="11.28" departLane="best" departPos="random_free" departSpeed="max" from="24" to="87"/>
    <trip id="172" depart="11.34" departLane="best" departPos="random_free" departSpeed="max" from="90" to="87"/>
    <trip id="173" depart="11.41" departLane="best" departPos="random_free" departSpeed="max" from="24" to="87"/>
    <trip id="174" depart="11.47" departLane="best" departPos="random_free" departSpeed="max" from="8" to="31"/>
    <trip id="175" depart="11.54" departLane="best" departPos="random_free" departSpeed="max" from="24" to="87"/>
    <trip id="176" depart="11.61" departLane="best" departPos="random_free" departSpeed="max" from="24" to="87"/>
    <trip id="177" depart="11.67" departLane="best" departPos="random_free" departSpeed="max" from="8" to="87"/>
    <trip id="178" depart="11.74" departLane="best" departPos="random_free" departSpeed="max" from="90" to="31"/>
    <trip id="179" depart="11.80" departLane="best" departPos="random_free" departSpeed="max" from="8" to="15"/>
    <trip id="180" depart="11.87" departLane="best" departPos="random_free" departSpeed="max" from="8" to="87"/>
    <trip id="181" depart="11.93" departLane="best" departPos="random_free" departSpeed="max" from="90" to="15"/>
    <trip id="182" depart="12.00" departLane="best" departPos="random_free" departSpeed="max" from="8" to="31"/>
    <trip id="183" depart="12.07" departLane="best" departPos="random_free" departSpeed="max" from="8" to="87"/>
    <trip id="184" depart="12.13" departLane="best" departPos="random_free" departSpeed="max" from="24" to="15"/>
    <trip id="185" depart="12.20" departLane="best" departPos="random_free" departSpeed="max" from="8" to="31"/>
    <trip id="186" depart="12.26" departLane="best" departPos="random_free" departSpeed="max" from="8" to="87"/>
    <trip id="187" depart="12.33" departLane="best" departPos="random_free" departSpeed="max" from="24" to="15"/>
    <trip id="188" depart="12.40" departLane="best" departPos="random_free" departSpeed="max" from="90" to="15"/>
    <trip id="189" depart="12.46" departLane="best" departPos="random_free" departSpeed="max" from="24" to="15"/>
    <trip id="190" depart="12.53" departLane="best" departPos="random_free" departSpeed="max" from="90" to="31"/>
    <trip id="191" depart="12.59" departLane="best" departPos="random_free" departSpeed="max" from="8" to="87"/>
    <trip id="192" depart="12.66" departLane="best" departPos="random_free" departSpeed="max" from="90" to="87"/>
    <trip id="193" depart="12.73" departLane="best" departPos="random_free" departSpeed="max" from="90" to="15"/>
    <trip id="194" depart="12.79" departLane="best" departPos="random_free" departSpeed="max" from="90" to="15"/>
    <trip id="195" depart="12.86" departLane="best" departPos="random_free" departSpeed="max" from="8" to="87"/>
    <trip id="196" depart="12.92" departLane="best" departPos="random_free" departSpeed="max" from="90" to="87"/>
    <trip id="197" depart="12.99" departLane="best" departPos="random_free" departSpeed="max" from="90" to="31"/>
    <trip id="198" depart="13.06" departLane="best" departPos="random_free" departSpeed="max" from="24" to="87"/>
    <trip id="199" depart="13.12" departLane="best" departPos="random_free" departSpeed="max" from="24" to="31"/>
    <trip id="200" depart="13.19" departLane="best" departPos="random_free" departSpeed="max" from="8" to="31"/>
    <trip id="201" depart="13.25" departLane="best" departPos="random_free" departSpeed="max" from="8" to="15"/>
    <trip id="202" depart="13.32" departLane="best" departPos="random_free" departSpeed="max" from="90" to="31"/>
    <trip id="203" depart="13.39" departLane="best" departPos="random_free" departSpeed="max" from="90" to="31"/>
    <trip id="204" depart="13.45" departLane="best" departPos="random_free" departSpeed="max" from="24" to="15"/>
    <trip id="205" depart="13.52" departLane="best" departPos="random_free" departSpeed="max" from="90" to="87"/>
    <trip id="206" depart="13.58" departLane="best" departPos="random_free" departSpeed="max" from="24" to="15"/>
    <trip id="207" depart="13.65" departLane="best" departPos="random_free" departSpeed="max" from="90" to="87"/>
    <trip id="208" depart="13.72" departLane="best" departPos="random_free" departSpeed="max" from="8" to="31"/>
    <trip id="209" depart="13.78" departLane="best" departPos="random_free" departSpeed="max" from="8" to="31"/>
    <trip id="210" depart="13.85" departLane="best" departPos="random_free" departSpeed="max" from="8" to="87"/>
    <trip id="211" depart="13.91" departLane="best" departPos="random_free" departSpeed="max" from="90" to="87"/>
    <trip id="212" depart="13.98" departLane="best" departPos="random_free" departSpeed="max" from="24" to="15"/>
    <trip id="213" depart="14.04" departLane="best" departPos="random_free" departSpeed="max" from="8" to="87"/>
    <trip id="214" depart="14.11" departLane="best" departPos="random_free" departSpeed="max" from="8" to="87"/>
    <trip id="215" depart="14.18" departLane="best" departPos="random_free" departSpeed="max" from="90" to="87"/>
    <trip id="216" depart="14.24" departLane="best" departPos="random_free" departSpeed="max" from="90" to="15"/>
    <trip id="217" depart="14.31" departLane="best" departPos="random_free" departSpeed="max" from="90" to="31"/>
    <trip id="218" depart="14.37" departLane="best" departPos="random_free" departSpeed="max" from="90" to="87"/>
    <trip id="219" depart="14.44" departLane="best" departPos="random_free" departSpeed="max" from="24" to="87"/>
    <trip id="220" depart="14.51" departLane="best" departPos="random_free" departSpeed="max" from="90" to="31"/>
    <trip id="221" depart="14.57" departLane="best" departPos="random_free" departSpeed="max" from="24" to="31"/>
    <trip id="222" depart="14.64" departLane="best" departPos="random_free" departSpeed="max" from="24" to="15"/>
    <trip id="223" depart="14.70" departLane="best" departPos="random_free" departSpeed="max" from="24" to="31"/>
    <trip id="224" depart="14.77" departLane="best" departPos="random_free" departSpeed="max" from="90" to="31"/>
    <trip id="225" depart="14.84" departLane="best" departPos="random_free" departSpeed="max" from="24" to="87"/>
    <trip id="226" depart="14.90" departLane="best" departPos="random_free" departSpeed="max" from="90" to="87"/>
    <trip id="227" depart="14.97" departLane="best" departPos="random_free" departSpeed="max" from="8" to="87"/>
    <trip id="228" depart="15.03" departLane="best" departPos="random_free" departSpeed="max" from="24" to="87"/>
    <trip id="229" depart="15.10" departLane="best" departPos="random_free" departSpeed="max" from="24" to="15"/>
    <trip id="230" depart="15.17" departLane="best" departPos="random_free" departSpeed="max" from="24" to="87"/>