<?xml version="1.0" encoding="UTF-8"?>

<!-- generated on 2023-06-29 16:35:38.191601 by randomTrips.py UNKNOWN
<configuration>
    <net-file value="/home/tianzheng/Documents/Github/commonroad-scenario-designer/output/merging_lanelets_utm.simulated.cr.net.xml"/>
    <additional-files value="/home/tianzheng/Documents/Github/commonroad-scenario-designer/output/merging_lanelets_utm.simulated.cr.add.xml"/>
    <output-trip-file value="/home/tianzheng/Documents/Github/commonroad-scenario-designer/output/merging_lanelets_utm.simulated.cr.vehicles.trips.xml"/>
    <route-file value="/home/tianzheng/Documents/Github/commonroad-scenario-designer/output/merging_lanelets_utm.simulated.cr.vehicles.rou.xml"/>
    <trip-attributes value="departLane=&quot;best&quot; departSpeed=&quot;max&quot; departPos=&quot;random_free&quot;"/>
    <end value="30.0"/>
    <seed value="1234"/>
    <fringe-factor value="2147483646"/>
    <validate value="True"/>
    <period value="0.22793970994671908"/>
</configuration>
-->

<!-- generated on 2023-06-29 16:35:38 by Eclipse SUMO duarouter Version 1.17.0
<configuration xmlns:xsi="http://www.w3.org/2001/XMLSchema-instance" xsi:noNamespaceSchemaLocation="http://sumo.dlr.de/xsd/duarouterConfiguration.xsd">

    <input>
        <net-file value="/home/tianzheng/Documents/Github/commonroad-scenario-designer/output/merging_lanelets_utm.simulated.cr.net.xml"/>
        <additional-files value="/home/tianzheng/Documents/Github/commonroad-scenario-designer/output/merging_lanelets_utm.simulated.cr.add.xml"/>
        <route-files value="/home/tianzheng/Documents/Github/commonroad-scenario-designer/output/merging_lanelets_utm.simulated.cr.vehicles.trips.xml"/>
    </input>

    <output>
        <output-file value="/home/tianzheng/Documents/Github/commonroad-scenario-designer/output/merging_lanelets_utm.simulated.cr.vehicles.rou.xml"/>
        <alternatives-output value="NUL"/>
    </output>

    <time>
        <begin value="0.0"/>
        <end value="30.0"/>
    </time>

    <report>
        <no-warnings value="true"/>
        <ignore-errors value="true"/>
        <no-step-log value="true"/>
    </report>

</configuration>
-->

<routes xmlns:xsi="http://www.w3.org/2001/XMLSchema-instance" xsi:noNamespaceSchemaLocation="http://sumo.dlr.de/xsd/routes_file.xsd">
    <vType id="truck" length="7.50" minGap="2.50" maxSpeed="36.11" probability="0.80" speedFactor="normc(0.91,0.18,0.20,2.00)" vClass="truck" impatience="0.20" guiShape="truck" width="2.60" lcStrategic="46.95" lcCooperative="2.72" lcSpeedGain="10.40" lcKeepRight="0.84" lcImpatience="0.08" lcMaxSpeedLatStanding="0.00" lcSigma="0.14" accel="1.50" decel="4.18" sigma="0.61"/>
    <vehicle id="0" depart="0.00" departLane="best" departPos="random_free" departSpeed="max">
        <route edges="100 101 105 109"/>
    </vehicle>
    <vType id="passenger" length="5.00" minGap="2.50" maxSpeed="50.00" probability="4.00" speedFactor="normc(1.02,0.14,0.20,2.00)" vClass="passenger" impatience="0.15" guiShape="passenger" width="2.00" lcStrategic="35.45" lcCooperative="1.81" lcSpeedGain="3.03" lcKeepRight="0.84" lcImpatience="0.47" lcMaxSpeedLatStanding="0.00" lcSigma="0.11" accel="2.39" decel="4.16" sigma="0.62"/>
    <vehicle id="1" depart="0.23" departLane="best" departPos="random_free" departSpeed="max">
        <route edges="100 101 105 109"/>
    </vehicle>
    <vehicle id="2" depart="0.46" departLane="best" departPos="random_free" departSpeed="max">
        <route edges="100 101 105 109"/>
    </vehicle>
    <vehicle id="3" depart="0.68" departLane="best" departPos="random_free" departSpeed="max">
        <route edges="100 101 105 109"/>
    </vehicle>
    <vehicle id="4" depart="0.91" departLane="best" departPos="random_free" departSpeed="max">
        <route edges="100 101 105 109"/>
    </vehicle>
    <vehicle id="5" depart="1.14" departLane="best" departPos="random_free" departSpeed="max">
        <route edges="100 101 105 109"/>
    </vehicle>
    <vehicle id="6" depart="1.37" departLane="best" departPos="random_free" departSpeed="max">
        <route edges="100 101 105 109"/>
    </vehicle>
    <vehicle id="7" depart="1.60" departLane="best" departPos="random_free" departSpeed="max">
        <route edges="100 101 105 109"/>
    </vehicle>
    <vehicle id="8" depart="1.82" departLane="best" departPos="random_free" departSpeed="max">
        <route edges="100 101 105 109"/>
    </vehicle>
    <vehicle id="9" depart="2.05" departLane="best" departPos="random_free" departSpeed="max">
        <route edges="100 101 105 109"/>
    </vehicle>
    <vehicle id="10" depart="2.28" departLane="best" departPos="random_free" departSpeed="max">
        <route edges="100 101 105 109"/>
    </vehicle>
    <vehicle id="11" depart="2.51" departLane="best" departPos="random_free" departSpeed="max">
        <route edges="100 101 105 109"/>
    </vehicle>
    <vehicle id="12" depart="2.74" departLane="best" departPos="random_free" departSpeed="max">
        <route edges="100 101 105 109"/>
    </vehicle>
    <vehicle id="13" depart="2.96" departLane="best" departPos="random_free" departSpeed="max">
        <route edges="100 101 105 109"/>
    </vehicle>
    <vehicle id="14" depart="3.19" departLane="best" departPos="random_free" departSpeed="max">
        <route edges="100 101 105 109"/>
    </vehicle>
    <vehicle id="15" depart="3.42" departLane="best" departPos="random_free" departSpeed="max">
        <route edges="100 101 105 109"/>
    </vehicle>
    <vehicle id="16" depart="3.65" departLane="best" departPos="random_free" departSpeed="max">
        <route edges="100 101 105 109"/>
    </vehicle>
    <vehicle id="17" depart="3.87" departLane="best" departPos="random_free" departSpeed="max">
        <route edges="100 101 105 109"/>
    </vehicle>
    <vehicle id="18" depart="4.10" departLane="best" departPos="random_free" departSpeed="max">
        <route edges="100 101 105 109"/>
    </vehicle>
    <vehicle id="19" depart="4.33" departLane="best" departPos="random_free" departSpeed="max">
        <route edges="100 101 105 109"/>
    </vehicle>
    <vehicle id="20" depart="4.56" departLane="best" departPos="random_free" departSpeed="max">
        <route edges="100 101 105 109"/>
    </vehicle>
    <vehicle id="21" depart="4.79" departLane="best" departPos="random_free" departSpeed="max">
        <route edges="100 101 105 109"/>
    </vehicle>
    <vehicle id="22" depart="5.01" departLane="best" departPos="random_free" departSpeed="max">
        <route edges="100 101 105 109"/>
    </vehicle>
    <vehicle id="23" depart="5.24" departLane="best" departPos="random_free" departSpeed="max">
        <route edges="100 101 105 109"/>
    </vehicle>
    <vType id="bus" length="12.40" minGap="2.50" maxSpeed="23.61" probability="0.30" speedFactor="normc(0.91,0.14,0.20,2.00)" vClass="bus" impatience="0.42" guiShape="bus" width="2.70" lcStrategic="23.85" lcCooperative="1.63" lcSpeedGain="15.59" lcKeepRight="0.87" lcImpatience="0.36" lcMaxSpeedLatStanding="0.00" lcSigma="0.10" accel="1.05" decel="4.29" sigma="0.52"/>
    <vehicle id="24" depart="5.47" departLane="best" departPos="random_free" departSpeed="max">
        <route edges="100 101 105 109"/>
    </vehicle>
    <vehicle id="25" depart="5.70" departLane="best" departPos="random_free" departSpeed="max">
        <route edges="100 101 105 109"/>
    </vehicle>
    <vehicle id="26" depart="5.93" departLane="best" departPos="random_free" departSpeed="max">
        <route edges="100 101 105 109"/>
    </vehicle>
    <vehicle id="27" depart="6.15" departLane="best" departPos="random_free" departSpeed="max">
        <route edges="100 101 105 109"/>
    </vehicle>
    <vehicle id="28" depart="6.38" departLane="best" departPos="random_free" departSpeed="max">
        <route edges="100 101 105 109"/>
    </vehicle>
    <vehicle id="29" depart="6.61" departLane="best" departPos="random_free" departSpeed="max">
        <route edges="100 101 105 109"/>
    </vehicle>
    <vehicle id="30" depart="6.84" departLane="best" departPos="random_free" departSpeed="max">
        <route edges="100 101 105 109"/>
    </vehicle>
    <vehicle id="31" depart="7.07" departLane="best" departPos="random_free" departSpeed="max">
        <route edges="100 101 105 109"/>
    </vehicle>
    <vehicle id="32" depart="7.29" departLane="best" departPos="random_free" departSpeed="max">
        <route edges="100 101 105 109"/>
    </vehicle>
    <vehicle id="33" depart="7.52" departLane="best" departPos="random_free" departSpeed="max">
        <route edges="100 101 105 109"/>
    </vehicle>
    <vehicle id="34" depart="7.75" departLane="best" departPos="random_free" departSpeed="max">
        <route edges="100 101 105 109"/>
    </vehicle>
    <vehicle id="35" depart="7.98" departLane="best" departPos="random_free" departSpeed="max">
        <route edges="100 101 105 109"/>
    </vehicle>
    <vehicle id="36" depart="8.21" departLane="best" departPos="random_free" departSpeed="max">
        <route edges="100 101 105 109"/>
    </vehicle>
    <vehicle id="37" depart="8.43" departLane="best" departPos="random_free" departSpeed="max">
        <route edges="100 101 105 109"/>
    </vehicle>
    <vehicle id="38" depart="8.66" departLane="best" departPos="random_free" departSpeed="max">
        <route edges="100 101 105 109"/>
    </vehicle>
    <vehicle id="39" depart="8.89" departLane="best" departPos="random_free" departSpeed="max">
        <route edges="100 101 105 109"/>
    </vehicle>
    <vehicle id="40" depart="9.12" departLane="best" departPos="random_free" departSpeed="max">
        <route edges="100 101 105 109"/>
    </vehicle>
    <vType id="bicycle" length="2.00" minGap="1.00" maxSpeed="6.94" probability="0.20" speedFactor="normc(0.97,0.19,0.20,2.00)" vClass="bicycle" impatience="0.39" guiShape="bicycle" width="0.68" lcStrategic="83.98" lcCooperative="1.29" lcSpeedGain="11.52" lcKeepRight="0.89" lcImpatience="0.35" lcMaxSpeedLatStanding="0.00" lcSigma="0.15" accel="1.18" decel="2.85" sigma="0.64"/>
    <vehicle id="41" depart="9.35" departLane="best" departPos="random_free" departSpeed="max">
        <route edges="100 101 105 109"/>
    </vehicle>
    <vehicle id="42" depart="9.57" departLane="best" departPos="random_free" departSpeed="max">
        <route edges="100 101 105 109"/>
    </vehicle>
    <vehicle id="43" depart="9.80" departLane="best" departPos="random_free" departSpeed="max">
        <route edges="100 101 105 109"/>
    </vehicle>
    <vehicle id="44" depart="10.03" departLane="best" departPos="random_free" departSpeed="max">
        <route edges="100 101 105 109"/>
    </vehicle>
    <vehicle id="45" depart="10.26" departLane="best" departPos="random_free" departSpeed="max">
        <route edges="100 101 105 109"/>
    </vehicle>
    <vehicle id="46" depart="10.49" departLane="best" departPos="random_free" departSpeed="max">
        <route edges="100 101 105 109"/>
    </vehicle>
    <vehicle id="47" depart="10.71" departLane="best" departPos="random_free" departSpeed="max">
        <route edges="100 101 105 109"/>
    </vehicle>
    <vehicle id="48" depart="10.94" departLane="best" departPos="random_free" departSpeed="max">
        <route edges="100 101 105 109"/>
    </vehicle>
    <vehicle id="49" depart="11.17" departLane="best" departPos="random_free" departSpeed="max">
        <route edges="100 101 105 109"/>
    </vehicle>
    <vehicle id="50" depart="11.40" departLane="best" departPos="random_free" departSpeed="max">
        <route edges="100 101 105 109"/>
    </vehicle>
    <vehicle id="51" depart="11.62" departLane="best" departPos="random_free" departSpeed="max">
        <route edges="100 101 105 109"/>
    </vehicle>
    <vehicle id="52" depart="11.85" departLane="best" departPos="random_free" departSpeed="max">
        <route edges="100 101 105 109"/>
    </vehicle>
    <vehicle id="53" depart="12.08" departLane="best" departPos="random_free" departSpeed="max">
        <route edges="100 101 105 109"/>
    </vehicle>
    <vehicle id="54" depart="12.31" departLane="best" departPos="random_free" departSpeed="max">
        <route edges="100 101 105 109"/>
    </vehicle>
    <vehicle id="55" depart="12.54" departLane="best" departPos="random_free" departSpeed="max">
        <route edges="100 101 105 109"/>
    </vehicle>
    <vehicle id="56" depart="12.76" departLane="best" departPos="random_free" departSpeed="max">
        <route edges="100 101 105 109"/>
    </vehicle>
    <vehicle id="57" depart="12.99" departLane="best" departPos="random_free" departSpeed="max">
        <route edges="100 101 105 109"/>
    </vehicle>
    <vehicle id="58" depart="13.22" departLane="best" departPos="random_free" departSpeed="max">
        <route edges="100 101 105 109"/>
    </vehicle>
    <vehicle id="59" depart="13.45" departLane="best" departPos="random_free" departSpeed="max">
        <route edges="100 101 105 109"/>
    </vehicle>
    <vehicle id="60" depart="13.68" departLane="best" departPos="random_free" departSpeed="max">
        <route edges="100 101 105 109"/>
    </vehicle>
    <vehicle id="61" depart="13.90" departLane="best" departPos="random_free" departSpeed="max">
        <route edges="100 101 105 109"/>
    </vehicle>
    <vehicle id="62" depart="14.13" departLane="best" departPos="random_free" departSpeed="max">
        <route edges="100 101 105 109"/>
    </vehicle>
    <vehicle id="63" depart="14.36" departLane="best" departPos="random_free" departSpeed="max">
        <route edges="100 101 105 109"/>
    </vehicle>
    <vehicle id="64" depart="14.59" departLane="best" departPos="random_free" departSpeed="max">
        <route edges="100 101 105 109"/>
    </vehicle>
    <vehicle id="65" depart="14.82" departLane="best" departPos="random_free" departSpeed="max">
        <route edges="100 101 105 109"/>
    </vehicle>
    <vehicle id="66" depart="15.04" departLane="best" departPos="random_free" departSpeed="max">
        <route edges="100 101 105 109"/>
    </vehicle>
    <vehicle id="67" depart="15.27" departLane="best" departPos="random_free" departSpeed="max">
        <route edges="100 101 105 109"/>
    </vehicle>
    <vehicle id="68" depart="15.50" departLane="best" departPos="random_free" departSpeed="max">
        <route edges="100 101 105 109"/>
    </vehicle>
    <vehicle id="69" depart="15.73" departLane="best" departPos="random_free" departSpeed="max">
        <route edges="100 101 105 109"/>
    </vehicle>
    <vehicle id="70" depart="15.96" departLane="best" departPos="random_free" departSpeed="max">
        <route edges="100 101 105 109"/>
    </vehicle>
    <vehicle id="71" depart="16.18" departLane="best" departPos="random_free" departSpeed="max">
        <route edges="100 101 105 109"/>
    </vehicle>
    <vehicle id="72" depart="16.41" departLane="best" departPos="random_free" departSpeed="max">
        <route edges="100 101 105 109"/>
    </vehicle>
    <vehicle id="73" depart="16.64" departLane="best" departPos="random_free" departSpeed="max">
        <route edges="100 101 105 109"/>
    </vehicle>
    <vehicle id="74" depart="16.87" departLane="best" departPos="random_free" departSpeed="max">
        <route edges="100 101 105 109"/>
    </vehicle>
    <vehicle id="75" depart="17.10" departLane="best" departPos="random_free" departSpeed="max">
        <route edges="100 101 105 109"/>
    </vehicle>
    <vehicle id="76" depart="17.32" departLane="best" departPos="random_free" departSpeed="max">
        <route edges="100 101 105 109"/>
    </vehicle>
    <vehicle id="77" depart="17.55" departLane="best" departPos="random_free" departSpeed="max">
        <route edges="100 101 105 109"/>
    </vehicle>
    <vehicle id="78" depart="17.78" departLane="best" departPos="random_free" departSpeed="max">
        <route edges="100 101 105 109"/>
    </vehicle>
    <vehicle id="79" depart="18.01" departLane="best" departPos="random_free" departSpeed="max">
        <route edges="100 101 105 109"/>
    </vehicle>
    <vehicle id="80" depart="18.24" departLane="best" departPos="random_free" departSpeed="max">
        <route edges="100 101 105 109"/>
    </vehicle>
    <vehicle id="81" depart="18.46" departLane="best" departPos="random_free" departSpeed="max">
        <route edges="100 101 105 109"/>
    </vehicle>
    <vehicle id="82" depart="18.69" departLane="best" departPos="random_free" departSpeed="max">
        <route edges="100 101 105 109"/>
    </vehicle>
    <vehicle id="83" depart="18.92" departLane="best" departPos="random_free" departSpeed="max">
        <route edges="100 101 105 109"/>
    </vehicle>
    <vehicle id="84" depart="19.15" departLane="best" departPos="random_free" departSpeed="max">
        <route edges="100 101 105 109"/>
    </vehicle>
    <vehicle id="85" depart="19.37" departLane="best" departPos="random_free" departSpeed="max">
        <route edges="100 101 105 109"/>
    </vehicle>
    <vehicle id="86" depart="19.60" departLane="best" departPos="random_free" departSpeed="max">
        <route edges="100 101 105 109"/>
    </vehicle>
    <vehicle id="87" depart="19.83" departLane="best" departPos="random_free" departSpeed="max">
        <route edges="100 101 105 109"/>
    </vehicle>
    <vehicle id="88" depart="20.06" departLane="best" departPos="random_free" departSpeed="max">
        <route edges="100 101 105 109"/>
    </vehicle>
    <vehicle id="89" depart="20.29" departLane="best" departPos="random_free" departSpeed="max">
        <route edges="100 101 105 109"/>
    </vehicle>
    <vehicle id="90" depart="20.51" departLane="best" departPos="random_free" departSpeed="max">
        <route edges="100 101 105 109"/>
    </vehicle>
    <vehicle id="91" depart="20.74" departLane="best" departPos="random_free" departSpeed="max">
        <route edges="100 101 105 109"/>
    </vehicle>
    <vehicle id="92" depart="20.97" departLane="best" departPos="random_free" departSpeed="max">
        <route edges="100 101 105 109"/>
    </vehicle>
    <vehicle id="93" depart="21.20" departLane="best" departPos="random_free" departSpeed="max">
        <route edges="100 101 105 109"/>
    </vehicle>
    <vehicle id="94" depart="21.43" departLane="best" departPos="random_free" departSpeed="max">
        <route edges="100 101 105 109"/>
    </vehicle>
    <vehicle id="95" depart="21.65" departLane="best" departPos="random_free" departSpeed="max">
        <route edges="100 101 105 109"/>
    </vehicle>
    <vehicle id="96" depart="21.88" departLane="best" departPos="random_free" departSpeed="max">
        <route edges="100 101 105 109"/>
    </vehicle>
    <vehicle id="97" depart="22.11" departLane="best" departPos="random_free" departSpeed="max">
        <route edges="100 101 105 109"/>
    </vehicle>
    <vehicle id="98" depart="22.34" departLane="best" departPos="random_free" departSpeed="max">
        <route edges="100 101 105 109"/>
    </vehicle>
    <vehicle id="99" depart="22.57" departLane="best" departPos="random_free" departSpeed="max">
        <route edges="100 101 105 109"/>
    </vehicle>
    <vehicle id="100" depart="22.79" departLane="best" departPos="random_free" departSpeed="max">
        <route edges="100 101 105 109"/>
    </vehicle>
    <vehicle id="101" depart="23.02" departLane="best" departPos="random_free" departSpeed="max">
        <route edges="100 101 105 109"/>
    </vehicle>
    <vehicle id="102" depart="23.25" departLane="best" departPos="random_free" departSpeed="max">
        <route edges="100 101 105 109"/>
    </vehicle>
    <vehicle id="103" depart="23.48" departLane="best" departPos="random_free" departSpeed="max">
        <route edges="100 101 105 109"/>
    </vehicle>
    <vehicle id="104" depart="23.71" departLane="best" departPos="random_free" departSpeed="max">
        <route edges="100 101 105 109"/>
    </vehicle>
    <vehicle id="105" depart="23.93" departLane="best" departPos="random_free" departSpeed="max">
        <route edges="100 101 105 109"/>
    </vehicle>
    <vehicle id="106" depart="24.16" departLane="best" departPos="random_free" departSpeed="max">
        <route edges="100 101 105 109"/>
    </vehicle>
    <vehicle id="107" depart="24.39" departLane="best" departPos="random_free" departSpeed="max">
        <route edges="100 101 105 109"/>
    </vehicle>
    <vehicle id="108" depart="24.62" departLane="best" departPos="random_free" departSpeed="max">
        <route edges="100 101 105 109"/>
    </vehicle>
    <vehicle id="109" depart="24.85" departLane="best" departPos="random_free" departSpeed="max">
        <route edges="100 101 105 109"/>
    </vehicle>
    <vehicle id="110" depart="25.07" departLane="best" departPos="random_free" departSpeed="max">
        <route edges="100 101 105 109"/>
    </vehicle>
    <vehicle id="111" depart="25.30" departLane="best" departPos="random_free" departSpeed="max">
        <route edges="100 101 105 109"/>
    </vehicle>
    <vehicle id="112" depart="25.53" departLane="best" departPos="random_free" departSpeed="max">
        <route edges="100 101 105 109"/>
    </vehicle>
    <vehicle id="113" depart="25.76" departLane="best" departPos="random_free" departSpeed="max">
        <route edges="100 101 105 109"/>
    </vehicle>
    <vehicle id="114" depart="25.99" departLane="best" departPos="random_free" departSpeed="max">
        <route edges="100 101 105 109"/>
    </vehicle>
    <vehicle id="115" depart="26.21" departLane="best" departPos="random_free" departSpeed="max">
        <route edges="100 101 105 109"/>
    </vehicle>
    <vehicle id="116" depart="26.44" departLane="best" departPos="random_free" departSpeed="max">
        <route edges="100 101 105 109"/>
    </vehicle>
    <vehicle id="117" depart="26.67" departLane="best" departPos="random_free" departSpeed="max">
        <route edges="100 101 105 109"/>
    </vehicle>
    <vehicle id="118" depart="26.90" departLane="best" departPos="random_free" departSpeed="max">
        <route edges="100 101 105 109"/>
    </vehicle>
    <vehicle id="119" depart="27.12" departLane="best" departPos="random_free" departSpeed="max">
        <route edges="100 101 105 109"/>
    </vehicle>
    <vehicle id="120" depart="27.35" departLane="best" departPos="random_free" departSpeed="max">
        <route edges="100 101 105 109"/>
    </vehicle>
    <vehicle id="121" depart="27.58" departLane="best" departPos="random_free" departSpeed="max">
        <route edges="100 101 105 109"/>
    </vehicle>
    <vehicle id="122" depart="27.81" departLane="best" departPos="random_free" departSpeed="max">
        <route edges="100 101 105 109"/>
    </vehicle>
    <vehicle id="123" depart="28.04" departLane="best" departPos="random_free" departSpeed="max">
        <route edges="100 101 105 109"/>
    </vehicle>
    <vehicle id="124" depart="28.26" departLane="best" departPos="random_free" departSpeed="max">
        <route edges="100 101 105 109"/>
    </vehicle>
    <vehicle id="125" depart="28.49" departLane="best" departPos="random_free" departSpeed="max">
        <route edges="100 101 105 109"/>
    </vehicle>
    <vehicle id="126" depart="28.72" departLane="best" departPos="random_free" departSpeed="max">
        <route edges="100 101 105 109"/>
    </vehicle>
    <vehicle id="127" depart="28.95" departLane="best" departPos="random_free" departSpeed="max">
        <route edges="100 101 105 109"/>
    </vehicle>
    <vehicle id="128" depart="29.18" departLane="best" departPos="random_free" departSpeed="max">
        <route edges="100 101 105 109"/>
    </vehicle>
    <vehicle id="129" depart="29.40" departLane="best" departPos="random_free" departSpeed="max">
        <route edges="100 101 105 109"/>
    </vehicle>
    <vehicle id="130" depart="29.63" departLane="best" departPos="random_free" departSpeed="max">
        <route edges="100 101 105 109"/>
    </vehicle>
    <vehicle id="131" depart="29.86" departLane="best" departPos="random_free" departSpeed="max">
        <route edges="100 101 105 109"/>
    </vehicle>
</routes>
